<?xml version='1.0' encoding='utf-8'?>
<connections>
    <connection from="389.0" to="392.0" fromLane="1" toLane="2" />
    <connection from="389.0" to="392.0" fromLane="0" toLane="1" />
    <connection from="385.0" to="388.0" fromLane="1" toLane="0" />
    <connection from="385.0" to="396.0" fromLane="1" toLane="0" />
    <connection from="385.0" to="396.0" fromLane="2" toLane="1" />
</connections>