<?xml version="1.0" encoding="UTF-8"?>

<!-- generated on 2025-10-19 17:35:17 by Eclipse SUMO netconvert Version 1.23.1
<netconvertConfiguration xmlns:xsi="http://www.w3.org/2001/XMLSchema-instance" xsi:noNamespaceSchemaLocation="http://sumo.dlr.de/xsd/netconvertConfiguration.xsd">

    <input>
        <node-files value="/home/sdai/harry/TeraSim/jupiter/eb/jupiter_eb_tiles/tile_0057/tile_0057.nod.xml"/>
        <edge-files value="/home/sdai/harry/TeraSim/jupiter/eb/jupiter_eb_tiles/tile_0057/tile_0057.edg.xml"/>
        <connection-files value="/home/sdai/harry/TeraSim/jupiter/eb/jupiter_eb_tiles/tile_0057/tile_0057.con.xml"/>
    </input>

    <output>
        <output-file value="/home/sdai/harry/TeraSim/jupiter/eb/jupiter_eb_tiles/tile_0057/tile_0057.net.xml"/>
        <output.street-names value="true"/>
        <output.original-names value="true"/>
    </output>

    <processing>
        <geometry.remove value="false"/>
        <geometry.min-dist value="0.5"/>
        <edges.join value="false"/>
    </processing>

    <junctions>
        <no-internal-links value="false"/>
        <no-turnarounds value="true"/>
        <junctions.join value="true"/>
        <junctions.join-dist value="10"/>
        <junctions.corner-detail value="5"/>
        <junctions.internal-link-detail value="5"/>
        <junctions.limit-turn-speed value="5.5"/>
        <rectangular-lane-cut value="true"/>
        <check-lane-foes.all value="true"/>
    </junctions>

</netconvertConfiguration>
-->

<net version="1.20" junctionCornerDetail="5" junctionLinkDetail="5" rectangularLaneCut="true" limitTurnSpeed="5.50" checkLaneFoesAll="1" xmlns:xsi="http://www.w3.org/2001/XMLSchema-instance" xsi:noNamespaceSchemaLocation="http://sumo.dlr.de/xsd/net_file.xsd">

    <location netOffset="-646751.40,-3280932.82" convBoundary="0.00,0.00,9765.62,1547.21" origBoundary="0.00,0.00,656663.70,3282496.03" projParameter="!"/>

    <edge id=":junction_26_0" function="internal">
        <lane id=":junction_26_0_0" index="0" speed="13.89" length="121.41" width="3.66" shape="7220.74,1104.45 7340.10,1126.69"/>
    </edge>
    <edge id=":junction_26_1" function="internal">
        <lane id=":junction_26_1_0" index="0" speed="13.89" length="121.47" width="3.66" shape="7219.97,1108.44 7340.10,1126.69"/>
        <lane id=":junction_26_1_1" index="1" speed="13.89" length="121.47" width="3.66" shape="7219.45,1112.06 7339.50,1130.30"/>
    </edge>
    <edge id=":junction_82_0" function="internal">
        <lane id=":junction_82_0_0" index="0" speed="13.89" length="87.01" width="3.66" shape="6075.53,953.04 6094.63,955.08 6122.56,957.62 6148.63,959.83 6162.18,960.84"/>
    </edge>
    <edge id=":junction_82_1" function="internal">
        <lane id=":junction_82_1_0" index="0" speed="13.89" length="87.11" width="3.66" shape="6075.53,953.04 6161.84,964.78"/>
        <lane id=":junction_82_1_1" index="1" speed="13.89" length="87.11" width="3.66" shape="6075.04,956.67 6161.35,968.41"/>
    </edge>
    <edge id=":node_386_end_0" function="internal">
        <lane id=":node_386_end_0_0" index="0" speed="13.89" length="0.30" width="3.66" shape="6599.70,1024.32 6599.99,1024.36"/>
        <lane id=":node_386_end_0_1" index="1" speed="13.89" length="0.30" width="3.66" shape="6599.20,1027.95 6599.50,1027.99"/>
    </edge>
    <edge id=":node_386_start_0" function="internal">
        <lane id=":node_386_start_0_0" index="0" speed="13.89" length="0.30" width="3.66" shape="6547.83,1017.28 6548.13,1017.32"/>
        <lane id=":node_386_start_0_1" index="1" speed="13.89" length="0.30" width="3.66" shape="6547.34,1020.91 6547.64,1020.95"/>
    </edge>
    <edge id=":node_388_end_0" function="internal">
        <lane id=":node_388_end_0_0" index="0" speed="13.89" length="0.16" width="3.66" shape="6232.41,963.27 6232.46,963.27 6232.49,963.27 6232.53,963.27 6232.57,963.26"/>
    </edge>
    <edge id=":node_389_start_0" function="internal">
        <lane id=":node_389_start_0_0" index="0" speed="13.89" length="3.00" width="3.66" shape="7147.70,1098.46 7150.68,1098.86"/>
        <lane id=":node_389_start_0_1" index="1" speed="13.89" length="3.00" width="3.66" shape="7147.21,1102.08 7150.18,1102.49"/>
    </edge>
    <edge id=":node_390_start_0" function="internal">
        <lane id=":node_390_start_0_0" index="0" speed="13.89" length="3.00" width="3.66" shape="6230.06,974.09 6233.03,974.49"/>
        <lane id=":node_390_start_0_1" index="1" speed="13.89" length="3.00" width="3.66" shape="6229.57,977.72 6232.54,978.12"/>
    </edge>
    <edge id=":node_391_end_0" function="internal">
        <lane id=":node_391_end_0_0" index="0" speed="13.89" length="0.30" width="3.66" shape="6651.67,1031.35 6651.97,1031.39"/>
        <lane id=":node_391_end_0_1" index="1" speed="13.89" length="0.30" width="3.66" shape="6651.18,1034.98 6651.48,1035.02"/>
    </edge>

    <edge id="385.0" from="node_385_start" to="junction_82" priority="-1" type="town" shape="0.00,0.00 17.38,3.07 41.23,7.31 65.51,11.64 89.56,15.91 113.57,20.21 137.78,24.46 162.57,28.84 185.93,33.03 209.93,37.26 233.83,41.52 257.75,45.79 281.87,50.06 306.46,54.44 330.05,58.66 354.22,62.92 378.15,67.12 402.27,71.40 426.26,75.64 450.02,79.88 474.17,84.18 498.68,88.56 534.57,94.90 570.33,101.19 594.72,105.53 618.86,109.82 655.39,116.34 679.25,120.58 703.61,124.91 726.86,129.01 750.91,133.27 775.03,137.55 811.34,143.98 847.10,150.38 883.31,156.87 931.71,165.51 967.67,171.90 1004.02,178.34 1028.41,182.68 1052.16,186.89 1076.02,191.15 1088.06,193.29 1112.02,197.52 1124.08,199.66 1147.91,203.88 1172.53,208.26 1195.78,212.40 1220.16,216.67 1244.49,220.99 1268.17,225.20 1292.96,229.59 1317.33,233.94 1352.93,240.30 1388.81,246.66 1425.08,253.09 1449.59,257.40 1473.23,261.58 1497.49,265.90 1533.10,272.19 1569.37,278.73 1605.56,285.18 1641.80,291.65 1689.73,300.12 1725.75,306.47 1774.25,315.15 1810.04,321.50 1846.19,327.95 1882.41,334.41 1918.45,340.80 1954.13,347.21 1990.57,353.61 2038.78,362.17 2074.72,368.57 2110.76,374.98 2146.75,381.42 2182.97,387.83 2218.79,394.15 2255.40,400.63 2291.65,407.03 2327.78,413.45 2376.06,422.03 2423.43,430.42 2460.20,436.95 2496.03,443.35 2519.84,447.59 2556.35,454.11 2604.44,462.65 2640.20,468.98 2676.68,475.43 2724.72,483.92 2772.61,492.45 2808.12,498.79 2845.01,505.38 2881.14,511.74 2929.32,520.26 2978.00,528.88 3013.85,535.19 3049.96,541.58 3086.31,548.09 3122.43,554.53 3170.92,563.02 3206.86,569.10 3255.40,576.74 3292.39,582.21 3340.32,588.84 3376.96,593.80 3413.84,598.74 3462.09,605.31 3498.28,610.23 3534.54,615.19 3571.34,620.15 3607.50,625.09 3631.58,628.34 3667.86,633.26 3704.97,638.26 3753.71,644.86 3790.02,649.78 3838.45,656.28 3874.91,661.22 3911.15,666.04 3947.83,671.03 3984.11,675.94 4020.31,680.88 4056.41,685.79 4081.19,689.06 4105.39,692.29 4129.49,695.55 4153.45,698.80 4177.73,702.10 4202.28,705.47 4238.64,710.38 4274.60,715.32 4310.63,720.20 4359.04,726.70 4395.50,731.57 4418.74,734.73 4455.62,739.72 4503.40,746.23 4528.09,749.64 4564.40,754.48 4600.63,759.37 4624.35,762.53 4649.27,765.92 4685.22,770.79 4721.29,775.67 4757.83,780.58 4793.53,785.30 4829.66,790.14 4866.11,795.09 4890.53,798.36 4914.06,801.54 4938.44,804.89 4962.62,808.22 4987.06,811.54 5011.24,814.77 5035.70,818.12 5059.66,821.38 5083.08,824.60 5108.18,827.95 5132.42,831.20 5156.30,834.37 5192.63,839.36 5217.34,842.67 5229.16,844.17 5253.29,847.48 5277.47,850.79 5301.72,854.08 5326.31,857.34 5350.43,860.62 5375.26,864.02 5386.41,865.53 5411.01,868.90 5434.87,872.12 5459.33,875.44 5483.61,878.70 5507.63,881.93 5531.95,885.13 5568.56,890.12 5592.19,893.34 5616.30,896.57 5653.01,901.51 5678.16,904.97 5701.49,908.13 5713.87,909.79 5726.11,911.47 5738.15,913.13 5774.62,918.05 5786.51,919.71 5811.32,923.02 5834.30,926.15 5869.22,930.85 5892.65,933.99 5905.48,935.69 5930.10,939.01 5953.51,942.21 5975.67,945.22 5982.67,946.13 5999.56,948.42 6017.37,950.79 6035.31,953.18 6051.19,955.33 6067.17,957.45 6074.79,958.48">
        <lane id="385.0_0" index="0" disallow="all" speed="13.89" length="6151.01" width="3.66" shape="1.59,-9.01 18.98,-5.94 42.83,-1.70 67.11,2.63 91.17,6.90 115.17,11.20 139.37,15.45 164.17,19.83 187.53,24.02 211.53,28.25 235.44,32.51 259.35,36.78 283.47,41.05 308.07,45.43 331.65,49.65 355.81,53.91 379.74,58.11 403.87,62.39 427.86,66.63 451.63,70.87 475.78,75.17 500.28,79.55 536.16,85.89 571.92,92.18 596.32,96.52 620.47,100.81 657.00,107.33 680.85,111.57 705.21,115.90 728.45,120.00 752.51,124.26 776.63,128.54 812.94,134.97 848.71,141.37 884.92,147.86 933.32,156.50 969.27,162.89 1005.62,169.33 1030.01,173.67 1053.76,177.88 1077.63,182.14 1089.65,184.28 1113.61,188.51 1125.68,190.65 1149.51,194.87 1174.13,199.25 1197.37,203.39 1221.75,207.66 1246.09,211.98 1269.77,216.19 1294.56,220.58 1318.94,224.93 1354.53,231.29 1390.41,237.65 1426.67,244.08 1451.18,248.39 1474.83,252.57 1499.09,256.89 1534.71,263.18 1570.99,269.72 1607.17,276.17 1643.40,282.64 1691.32,291.11 1727.35,297.46 1775.86,306.14 1811.64,312.49 1847.80,318.94 1884.01,325.40 1920.06,331.79 1955.73,338.20 1992.16,344.60 2040.38,353.16 2076.32,359.56 2112.37,365.97 2148.35,372.41 2184.56,378.82 2220.38,385.14 2256.99,391.62 2293.25,398.02 2329.38,404.44 2377.66,413.02 2425.03,421.41 2461.80,427.94 2497.64,434.34 2521.45,438.58 2557.95,445.10 2606.04,453.64 2641.79,459.97 2678.27,466.42 2726.32,474.91 2774.22,483.44 2809.73,489.78 2846.61,496.37 2882.73,502.73 2930.91,511.25 2979.59,519.87 3015.44,526.18 3051.56,532.57 3087.92,539.08 3124.02,545.52 3172.47,554.00 3208.34,560.07 3256.78,567.69 3293.69,573.15 3341.56,579.77 3378.18,584.73 3415.07,589.67 3463.32,596.24 3499.52,601.16 3535.77,606.12 3572.57,611.08 3608.73,616.02 3632.81,619.27 3669.09,624.19 3706.20,629.19 3754.94,635.79 3791.24,640.71 3839.67,647.21 3876.13,652.15 3912.37,656.97 3949.06,661.96 3985.34,666.87 4021.55,671.81 4057.63,676.72 4082.39,679.99 4106.61,683.22 4130.72,686.48 4154.68,689.73 4178.97,693.03 4203.51,696.40 4239.88,701.31 4275.84,706.25 4311.85,711.13 4360.26,717.63 4396.72,722.50 4419.97,725.66 4456.85,730.65 4504.64,737.16 4529.32,740.57 4565.62,745.41 4601.85,750.30 4625.57,753.46 4650.50,756.85 4686.45,761.72 4722.51,766.60 4759.04,771.51 4794.74,776.23 4830.88,781.07 4867.34,786.02 4891.75,789.29 4915.30,792.47 4939.69,795.83 4963.86,799.15 4988.28,802.47 5012.47,805.70 5036.94,809.05 5060.90,812.31 5084.31,815.53 5109.39,818.88 5133.63,822.13 5157.53,825.30 5193.86,830.29 5218.54,833.60 5230.36,835.10 5254.53,838.41 5278.71,841.72 5302.94,845.01 5327.53,848.27 5351.67,851.55 5376.50,854.95 5387.65,856.46 5412.24,859.83 5436.10,863.05 5460.55,866.37 5484.83,869.63 5508.84,872.86 5533.17,876.06 5569.80,881.05 5593.42,884.27 5617.52,887.50 5654.24,892.44 5679.40,895.90 5702.71,899.06 5715.10,900.72 5727.36,902.41 5739.39,904.06 5775.85,908.98 5787.75,910.64 5812.54,913.95 5835.53,917.08 5870.44,921.78 5893.86,924.92 5906.70,926.62 5931.33,929.94 5954.75,933.14 5976.89,936.15 5983.89,937.06 6000.78,939.35 6018.58,941.72 6036.53,944.11 6052.41,946.26 6068.38,948.38 6076.02,949.41" type="shoulder"/>
        <lane id="385.0_1" index="1" speed="13.89" length="6151.01" width="3.66" shape="0.96,-5.41 18.34,-2.34 42.19,1.91 66.47,6.23 90.52,10.51 114.53,14.80 138.73,19.05 163.53,23.43 186.89,27.62 210.89,31.85 234.79,36.12 258.71,40.38 282.83,44.65 307.43,49.04 331.01,53.25 355.17,57.51 379.10,61.71 403.23,65.99 427.22,70.23 450.98,74.48 475.13,78.78 499.64,83.15 535.52,89.49 571.29,95.78 595.68,100.12 619.82,104.42 656.35,110.94 680.21,115.17 704.57,119.50 727.82,123.60 751.87,127.86 775.99,132.14 812.30,138.57 848.07,144.98 884.28,151.47 932.67,160.11 968.63,166.49 1004.98,172.93 1029.37,177.27 1053.12,181.48 1076.98,185.75 1089.02,187.88 1112.98,192.11 1125.04,194.25 1148.87,198.47 1173.49,202.85 1196.74,206.99 1221.11,211.26 1245.45,215.58 1269.13,219.79 1293.92,224.18 1318.30,228.54 1353.89,234.89 1389.77,241.25 1426.04,247.68 1450.54,251.99 1474.19,256.17 1498.45,260.49 1534.07,266.79 1570.34,273.33 1606.52,279.78 1642.76,286.24 1690.68,294.71 1726.71,301.06 1775.21,309.75 1811.00,316.09 1847.15,322.55 1883.37,329.00 1919.42,335.40 1955.09,341.80 1991.53,348.20 2039.74,356.76 2075.68,363.16 2111.72,369.58 2147.71,376.01 2183.93,382.42 2219.75,388.74 2256.36,395.22 2292.61,401.62 2328.74,408.04 2377.02,416.62 2424.39,425.01 2461.16,431.55 2496.99,437.95 2520.80,442.19 2557.31,448.70 2605.40,457.24 2641.16,463.57 2677.64,470.02 2725.68,478.51 2773.57,487.05 2809.09,493.39 2845.97,499.97 2882.09,506.33 2930.28,514.85 2978.96,523.47 3014.80,529.78 3050.92,536.17 3087.28,542.69 3123.39,549.12 3171.85,557.61 3207.75,563.68 3256.23,571.31 3293.17,576.78 3341.06,583.40 3377.69,588.36 3414.58,593.30 3462.83,599.87 3499.02,604.79 3535.28,609.75 3572.08,614.71 3608.24,619.65 3632.32,622.90 3668.60,627.82 3705.71,632.82 3754.45,639.42 3790.75,644.34 3839.18,650.84 3875.64,655.78 3911.88,660.60 3948.57,665.59 3984.85,670.50 4021.05,675.44 4057.14,680.35 4081.91,683.62 4106.12,686.85 4130.23,690.11 4154.19,693.36 4178.47,696.66 4203.02,700.03 4239.38,704.94 4275.34,709.88 4311.36,714.76 4359.77,721.26 4396.23,726.13 4419.48,729.29 4456.36,734.28 4504.15,740.79 4528.83,744.20 4565.13,749.04 4601.36,753.93 4625.08,757.09 4650.01,760.48 4685.96,765.35 4722.02,770.23 4758.56,775.14 4794.25,779.86 4830.39,784.70 4866.85,789.65 4891.26,792.92 4914.80,796.10 4939.19,799.45 4963.36,802.78 4987.79,806.10 5011.98,809.33 5036.44,812.68 5060.40,815.94 5083.82,819.16 5108.91,822.51 5133.15,825.76 5157.04,828.93 5193.37,833.92 5218.06,837.23 5229.88,838.73 5254.04,842.04 5278.21,845.35 5302.45,848.64 5327.04,851.90 5351.17,855.18 5376.00,858.58 5387.15,860.09 5411.75,863.46 5435.61,866.68 5460.07,870.00 5484.34,873.26 5508.35,876.49 5532.68,879.69 5569.30,884.68 5592.93,887.90 5617.03,891.13 5653.75,896.07 5678.90,899.53 5702.22,902.69 5714.61,904.35 5726.86,906.03 5738.89,907.69 5775.36,912.61 5787.25,914.27 5812.05,917.58 5835.04,920.71 5869.95,925.41 5893.38,928.55 5906.21,930.25 5930.84,933.57 5954.25,936.77 5976.40,939.78 5983.40,940.69 6000.29,942.98 6018.10,945.35 6036.04,947.74 6051.92,949.89 6067.90,952.01 6075.53,953.04"/>
        <lane id="385.0_2" index="2" speed="13.89" length="6151.01" width="3.66" shape="0.32,-1.80 17.70,1.27 41.55,5.51 65.83,9.84 89.88,14.11 113.89,18.41 138.10,22.66 162.89,27.04 186.25,31.23 210.25,35.46 234.15,39.72 258.07,43.99 282.19,48.26 306.78,52.64 330.37,56.86 354.54,61.12 378.47,65.32 402.59,69.60 426.58,73.84 450.34,78.08 474.49,82.38 499.00,86.76 534.89,93.10 570.65,99.39 595.04,103.73 619.18,108.02 655.71,114.54 679.57,118.78 703.93,123.11 727.18,127.21 751.23,131.47 775.35,135.75 811.66,142.18 847.42,148.58 883.63,155.07 932.03,163.71 967.99,170.10 1004.34,176.54 1028.73,180.88 1052.48,185.09 1076.34,189.35 1088.38,191.49 1112.34,195.72 1124.40,197.86 1148.23,202.08 1172.85,206.46 1196.10,210.60 1220.48,214.87 1244.81,219.19 1268.49,223.40 1293.28,227.79 1317.65,232.14 1353.25,238.50 1389.13,244.86 1425.40,251.29 1449.91,255.60 1473.55,259.78 1497.81,264.10 1533.42,270.39 1569.69,276.93 1605.88,283.38 1642.12,289.85 1690.05,298.32 1726.07,304.67 1774.57,313.35 1810.36,319.70 1846.51,326.15 1882.73,332.61 1918.77,339.00 1954.45,345.41 1990.89,351.81 2039.10,360.37 2075.04,366.77 2111.08,373.18 2147.07,379.62 2183.29,386.03 2219.11,392.35 2255.72,398.83 2291.97,405.23 2328.10,411.65 2376.38,420.23 2423.75,428.62 2460.52,435.15 2496.35,441.55 2520.16,445.79 2556.67,452.31 2604.76,460.85 2640.52,467.18 2677.00,473.63 2725.04,482.12 2772.93,490.65 2808.44,496.99 2845.33,503.58 2881.46,509.94 2929.64,518.46 2978.32,527.08 3014.17,533.39 3050.28,539.78 3086.63,546.29 3122.75,552.73 3171.23,561.22 3207.16,567.29 3255.68,574.93 3292.65,580.40 3340.57,587.03 3377.20,591.99 3414.09,596.93 3462.34,603.50 3498.53,608.42 3534.79,613.38 3571.59,618.34 3607.75,623.28 3631.83,626.53 3668.11,631.45 3705.22,636.45 3753.96,643.05 3790.26,647.97 3838.69,654.47 3875.15,659.41 3911.39,664.23 3948.08,669.22 3984.36,674.13 4020.56,679.07 4056.65,683.98 4081.43,687.25 4105.63,690.48 4129.74,693.74 4153.70,696.99 4177.98,700.29 4202.53,703.66 4238.89,708.57 4274.85,713.51 4310.87,718.39 4359.28,724.89 4395.74,729.76 4418.99,732.92 4455.87,737.91 4503.65,744.42 4528.34,747.83 4564.64,752.67 4600.87,757.56 4624.59,760.72 4649.52,764.11 4685.47,768.98 4721.54,773.86 4758.07,778.77 4793.77,783.49 4829.91,788.33 4866.36,793.28 4890.77,796.55 4914.31,799.73 4938.69,803.08 4962.87,806.41 4987.30,809.73 5011.49,812.96 5035.95,816.31 5059.91,819.57 5083.33,822.79 5108.42,826.14 5132.66,829.39 5156.55,832.56 5192.88,837.55 5217.58,840.86 5229.40,842.36 5253.54,845.67 5277.72,848.98 5301.96,852.27 5326.55,855.53 5350.68,858.81 5375.51,862.21 5386.66,863.72 5411.26,867.09 5435.12,870.31 5459.58,873.63 5483.85,876.89 5507.87,880.12 5532.19,883.32 5568.81,888.31 5592.44,891.53 5616.54,894.76 5653.26,899.70 5678.41,903.16 5701.74,906.32 5714.12,907.98 5726.36,909.66 5738.40,911.32 5774.87,916.24 5786.76,917.90 5811.56,921.21 5834.55,924.34 5869.46,929.04 5892.89,932.18 5905.72,933.88 5930.35,937.20 5953.76,940.40 5975.91,943.41 5982.91,944.32 5999.80,946.61 6017.61,948.98 6035.55,951.37 6051.43,953.52 6067.41,955.64 6075.04,956.67"/>
    </edge>
    <edge id="386.0" from="node_386_start" to="node_386_end" priority="-1" type="town" shape="6547.24,1022.74 6561.89,1024.72 6575.92,1026.59 6596.57,1029.43 6599.10,1029.78">
        <lane id="386.0_0" index="0" disallow="all" speed="13.89" length="52.05" width="3.66" shape="6548.62,1013.69 6563.11,1015.65 6577.15,1017.52 6597.82,1020.37 6600.20,1020.70" type="shoulder"/>
        <lane id="386.0_1" index="1" speed="13.89" length="52.05" width="3.66" shape="6548.13,1017.32 6562.62,1019.28 6576.66,1021.15 6597.32,1023.99 6599.70,1024.32"/>
        <lane id="386.0_2" index="2" speed="13.89" length="52.05" width="3.66" shape="6547.64,1020.95 6562.13,1022.91 6576.17,1024.78 6596.82,1027.62 6599.20,1027.95"/>
    </edge>
    <edge id="388.0" from="junction_82" to="node_388_end" priority="-1" type="town" shape="6159.13,962.49 6162.05,962.67 6172.34,963.06 6192.78,963.71 6211.40,964.38 6224.27,964.81 6232.51,965.10">
        <lane id="388.0_0" index="0" speed="13.89" length="70.27" width="3.66" shape="6162.18,960.84 6172.40,961.23 6192.84,961.88 6211.46,962.55 6224.33,962.98 6232.41,963.27"/>
    </edge>
    <edge id="389.0" from="node_389_start" to="junction_26" priority="-1" type="town" shape="7148.45,1104.10 7157.35,1105.31 7170.87,1107.13 7184.37,1109.00 7198.56,1110.95 7214.48,1113.20 7222.77,1114.38">
        <lane id="389.0_0" index="0" speed="13.89" length="69.94" width="3.66" shape="7150.68,1098.86 7158.09,1099.87 7171.61,1101.69 7185.12,1103.56 7199.32,1105.51 7215.25,1107.76 7219.97,1108.44"/>
        <lane id="389.0_1" index="1" speed="13.89" length="69.94" width="3.66" shape="7150.18,1102.49 7157.60,1103.50 7171.12,1105.32 7184.62,1107.19 7198.81,1109.14 7214.74,1111.39 7219.45,1112.06"/>
    </edge>
    <edge id="390.0" from="node_390_start" to="node_386_start" priority="-1" type="town" shape="6230.81,979.73 6245.71,981.73 6260.89,983.81 6275.94,985.81 6288.43,987.54 6307.29,990.06 6323.88,992.34 6341.53,994.73 6359.08,997.09 6376.57,999.49 6395.35,1002.05 6413.00,1004.46 6432.59,1007.11 6452.86,1009.89 6468.89,1012.05 6488.15,1014.68 6504.76,1016.93 6523.33,1019.47 6540.20,1021.78 6547.24,1022.74">
        <lane id="390.0_0" index="0" disallow="all" speed="13.89" length="317.70" width="3.66" shape="6233.52,970.86 6246.94,972.66 6262.11,974.74 6277.17,976.74 6289.66,978.47 6308.52,980.99 6325.12,983.27 6342.75,985.66 6360.31,988.02 6377.81,990.42 6396.59,992.98 6414.23,995.39 6433.83,998.04 6454.09,1000.82 6470.12,1002.98 6489.38,1005.61 6505.99,1007.86 6524.57,1010.40 6541.44,1012.71 6548.33,1013.65" type="shoulder"/>
        <lane id="390.0_1" index="1" speed="13.89" length="317.70" width="3.66" shape="6233.03,974.49 6246.45,976.29 6261.62,978.37 6276.68,980.37 6289.17,982.10 6308.03,984.62 6324.62,986.90 6342.26,989.29 6359.82,991.65 6377.31,994.05 6396.09,996.61 6413.74,999.02 6433.33,1001.67 6453.60,1004.45 6469.63,1006.61 6488.89,1009.24 6505.50,1011.49 6524.07,1014.03 6540.94,1016.34 6547.83,1017.28"/>
        <lane id="390.0_2" index="2" speed="13.89" length="317.70" width="3.66" shape="6232.54,978.12 6245.96,979.92 6261.14,982.00 6276.19,984.00 6288.68,985.73 6307.54,988.25 6324.13,990.53 6341.78,992.92 6359.33,995.28 6376.82,997.68 6395.60,1000.24 6413.25,1002.65 6432.84,1005.30 6453.11,1008.08 6469.14,1010.24 6488.40,1012.87 6505.01,1015.12 6523.58,1017.66 6540.45,1019.97 6547.34,1020.91"/>
    </edge>
    <edge id="391.0" from="node_386_end" to="node_391_end" priority="-1" type="town" shape="6599.10,1029.78 6605.89,1030.70 6622.72,1032.93 6651.08,1036.81">
        <lane id="391.0_0" index="0" disallow="all" speed="13.89" length="52.15" width="3.66" shape="6600.48,1020.73 6607.10,1021.63 6623.94,1023.86 6652.17,1027.72" type="shoulder"/>
        <lane id="391.0_1" index="1" speed="13.89" length="52.15" width="3.66" shape="6599.99,1024.36 6606.62,1025.26 6623.45,1027.49 6651.67,1031.35"/>
        <lane id="391.0_2" index="2" speed="13.89" length="52.15" width="3.66" shape="6599.50,1027.99 6606.13,1028.89 6622.96,1031.12 6651.18,1034.98"/>
    </edge>
    <edge id="392.0" from="junction_26" to="node_392_end" priority="-1" type="town" shape="7339.20,1132.11 7351.46,1134.14 7362.60,1136.04 7378.17,1138.68 7393.56,1141.39 7422.95,1146.55 7436.66,1148.99 7454.17,1152.10 7469.20,1154.82 7483.88,1157.45 7497.88,1160.02 7514.39,1163.02 7529.12,1165.72 7545.61,1168.76 7559.15,1171.29 7574.18,1174.10 7588.38,1176.79 7602.69,1179.46 7618.31,1182.39 7635.16,1185.55 7650.96,1188.46 7664.14,1190.91 7677.95,1193.50 7692.99,1196.26 7705.57,1198.58 7719.32,1201.09 7731.68,1203.42 7745.64,1205.96 7754.82,1207.66 7773.20,1211.08 7789.98,1214.16 7813.63,1218.51 7836.09,1222.65 7857.95,1226.65 7880.62,1230.83 7902.55,1234.86 7919.02,1237.94 7938.21,1241.46 7956.02,1244.79 7979.40,1249.14 8000.00,1252.97 8019.91,1256.68 8039.18,1260.25 8059.14,1263.94 8074.46,1266.80 8093.66,1270.35 8112.47,1273.80 8130.32,1277.12 8151.57,1281.04 8176.87,1285.73 8198.05,1289.64 8215.77,1292.88 8237.57,1296.90 8256.53,1300.39 8276.22,1304.01 8295.47,1307.57 8314.36,1311.09 8329.53,1313.92 8347.70,1317.30 8360.53,1319.65 8373.25,1322.02 8389.29,1325.00 8401.23,1327.23 8412.95,1329.39 8426.11,1331.84 8439.78,1334.36 8454.83,1337.15 8467.85,1339.54 8483.63,1342.49 8501.87,1345.88 8522.04,1349.59 8536.84,1352.35 8549.33,1354.65 8564.07,1357.37 8576.54,1359.66 8588.01,1361.72 8598.96,1363.75 8613.05,1366.35 8626.48,1368.80 8639.11,1371.13 8651.74,1373.48 8665.62,1376.05 8677.44,1378.21 8689.96,1380.50 8707.54,1383.75 8721.13,1386.25 8732.35,1388.34 8744.82,1390.64 8758.18,1393.12 8771.72,1395.64 8786.75,1398.39 8799.97,1400.87 8816.39,1403.93 8825.42,1405.58 8838.31,1407.96 8852.77,1410.64 8866.32,1413.12 8877.67,1415.26 8896.40,1418.68 8908.17,1420.85 8922.16,1423.42 8937.97,1426.33 8951.99,1428.90 8965.71,1431.41 8981.59,1434.37 8997.40,1437.31 9011.99,1440.02 9025.92,1442.59 9040.50,1445.31 9055.30,1448.07 9071.72,1451.10 9087.50,1454.01 9103.51,1456.98 9118.46,1459.71 9135.30,1462.81 9147.40,1465.04 9159.25,1467.20 9171.68,1469.47 9182.33,1471.45 9196.44,1474.08 9210.22,1476.61 9230.84,1480.39 9250.41,1483.91 9270.24,1487.28 9290.95,1490.69 9312.02,1493.91 9332.14,1496.94 9351.04,1499.68 9370.55,1502.48 9387.84,1504.81 9405.66,1507.08 9422.76,1509.24 9440.79,1511.38 9456.13,1513.20 9475.10,1515.34 9489.79,1516.96 9508.24,1519.02 9524.34,1520.77 9538.83,1522.36 9552.94,1523.90 9567.81,1525.55 9581.21,1527.01 9598.36,1528.90 9615.41,1530.76 9631.37,1532.47 9642.49,1533.69 9649.75,1534.51 9659.35,1535.61 9669.25,1536.68 9681.08,1538.00 9691.97,1539.19 9700.74,1540.14 9713.88,1541.54 9722.64,1542.49 9732.83,1543.61 9744.54,1544.86 9754.91,1546.04 9765.62,1547.21">
        <lane id="392.0_0" index="0" disallow="all" speed="13.89" length="2462.20" width="3.66" shape="7340.70,1123.08 7352.98,1125.12 7364.13,1127.02 7379.73,1129.66 7395.14,1132.38 7424.54,1137.54 7438.26,1139.98 7455.78,1143.09 7470.82,1145.81 7485.51,1148.45 7499.52,1151.02 7516.03,1154.02 7530.78,1156.72 7547.28,1159.76 7560.83,1162.30 7575.87,1165.11 7590.07,1167.80 7604.37,1170.47 7620.00,1173.40 7636.83,1176.55 7652.62,1179.46 7665.82,1181.92 7679.62,1184.50 7694.65,1187.26 7707.22,1189.58 7720.99,1192.09 7733.35,1194.42 7747.29,1196.96 7756.49,1198.66 7774.86,1202.08 7791.63,1205.16 7815.29,1209.51 7837.74,1213.65 7859.60,1217.65 7882.28,1221.83 7904.22,1225.86 7920.69,1228.94 7939.88,1232.46 7957.70,1235.80 7981.07,1240.14 8001.67,1243.97 8021.58,1247.68 8040.85,1251.25 8060.81,1254.94 8076.13,1257.80 8095.32,1261.35 8114.13,1264.80 8131.99,1268.12 8153.23,1272.04 8178.54,1276.73 8199.70,1280.64 8217.42,1283.88 8239.23,1287.90 8258.19,1291.39 8277.88,1295.01 8297.14,1298.57 8316.04,1302.09 8331.21,1304.92 8349.36,1308.30 8362.19,1310.65 8374.92,1313.02 8390.97,1316.00 8402.90,1318.23 8414.62,1320.39 8427.78,1322.84 8441.44,1325.36 8456.49,1328.15 8469.52,1330.54 8485.31,1333.49 8503.53,1336.88 8523.71,1340.59 8538.51,1343.35 8550.99,1345.65 8565.73,1348.37 8578.18,1350.66 8589.65,1352.72 8600.62,1354.75 8614.70,1357.35 8628.13,1359.80 8640.78,1362.13 8653.41,1364.48 8667.28,1367.05 8679.09,1369.21 8691.62,1371.50 8709.20,1374.75 8722.80,1377.25 8734.02,1379.34 8746.49,1381.64 8759.85,1384.12 8773.38,1386.64 8788.42,1389.39 8801.65,1391.88 8818.06,1394.93 8827.08,1396.58 8839.98,1398.96 8854.43,1401.64 8867.99,1404.12 8879.34,1406.26 8898.05,1409.68 8909.83,1411.85 8923.82,1414.42 8939.62,1417.33 8953.64,1419.90 8967.37,1422.41 8983.27,1425.37 8999.07,1428.31 9013.66,1431.02 9027.59,1433.59 9042.18,1436.32 9056.97,1439.07 9073.38,1442.10 9089.16,1445.01 9105.17,1447.98 9120.11,1450.71 9136.96,1453.81 9149.05,1456.04 9160.89,1458.20 9173.34,1460.47 9184.01,1462.45 9198.11,1465.08 9211.87,1467.61 9232.48,1471.39 9251.99,1474.90 9271.75,1478.26 9292.39,1481.65 9313.39,1484.86 9333.48,1487.89 9352.35,1490.62 9371.81,1493.42 9389.03,1495.74 9406.81,1498.00 9423.87,1500.16 9441.87,1502.29 9457.18,1504.11 9476.12,1506.25 9490.80,1507.87 9509.24,1509.93 9525.33,1511.67 9539.83,1513.26 9553.94,1514.80 9568.81,1516.45 9582.21,1517.91 9599.36,1519.80 9616.39,1521.66 9632.35,1523.37 9643.50,1524.60 9650.79,1525.42 9660.36,1526.52 9670.25,1527.58 9682.09,1528.91 9692.96,1530.09 9701.72,1531.04 9714.86,1532.44 9723.63,1533.39 9733.82,1534.51 9745.54,1535.76 9755.92,1536.95 9766.61,1538.11" type="shoulder"/>
        <lane id="392.0_1" index="1" speed="13.89" length="2462.20" width="3.66" shape="7340.10,1126.69 7352.37,1128.73 7363.52,1130.63 7379.11,1133.27 7394.51,1135.98 7423.90,1141.14 7437.62,1143.58 7455.14,1146.70 7470.17,1149.42 7484.86,1152.05 7498.87,1154.62 7515.38,1157.62 7530.11,1160.32 7546.61,1163.36 7560.16,1165.89 7575.20,1168.70 7589.39,1171.39 7603.70,1174.06 7619.32,1176.99 7636.16,1180.15 7651.96,1183.06 7665.15,1185.51 7678.95,1188.10 7693.98,1190.86 7706.56,1193.18 7720.32,1195.69 7732.68,1198.02 7746.63,1200.56 7755.82,1202.26 7774.20,1205.68 7790.97,1208.76 7814.62,1213.11 7837.08,1217.25 7858.94,1221.25 7881.61,1225.43 7903.55,1229.46 7920.02,1232.54 7939.21,1236.06 7957.03,1239.39 7980.40,1243.74 8001.01,1247.57 8020.91,1251.28 8040.18,1254.85 8060.14,1258.54 8075.46,1261.40 8094.65,1264.95 8113.47,1268.40 8131.32,1271.72 8152.57,1275.64 8177.87,1280.33 8199.04,1284.24 8216.76,1287.48 8238.57,1291.50 8257.52,1294.99 8277.22,1298.61 8296.47,1302.17 8315.37,1305.69 8330.54,1308.52 8348.70,1311.90 8361.53,1314.25 8374.25,1316.62 8390.30,1319.60 8402.23,1321.83 8413.95,1323.99 8427.11,1326.44 8440.78,1328.96 8455.83,1331.75 8468.85,1334.14 8484.64,1337.09 8502.87,1340.48 8523.04,1344.19 8537.84,1346.95 8550.33,1349.25 8565.06,1351.97 8577.52,1354.26 8589.00,1356.32 8599.96,1358.35 8614.04,1360.95 8627.47,1363.40 8640.11,1365.73 8652.74,1368.08 8666.61,1370.65 8678.43,1372.81 8690.95,1375.10 8708.54,1378.35 8722.13,1380.85 8733.35,1382.94 8745.82,1385.24 8759.18,1387.72 8772.72,1390.24 8787.75,1392.99 8800.98,1395.47 8817.39,1398.53 8826.41,1400.18 8839.31,1402.56 8853.77,1405.24 8867.32,1407.72 8878.67,1409.86 8897.39,1413.28 8909.16,1415.45 8923.15,1418.02 8938.96,1420.93 8952.98,1423.50 8966.71,1426.01 8982.60,1428.97 8998.40,1431.91 9012.99,1434.62 9026.92,1437.19 9041.51,1439.91 9056.30,1442.67 9072.72,1445.70 9088.50,1448.61 9104.50,1451.58 9119.45,1454.31 9136.29,1457.41 9148.39,1459.64 9160.24,1461.80 9172.67,1464.07 9183.34,1466.05 9197.44,1468.68 9211.21,1471.21 9231.82,1474.99 9251.36,1478.50 9271.15,1481.87 9291.81,1485.27 9312.84,1488.48 9332.94,1491.51 9351.82,1494.25 9371.31,1497.04 9388.55,1499.37 9406.35,1501.63 9423.43,1503.79 9441.44,1505.93 9456.76,1507.75 9475.71,1509.88 9490.40,1511.50 9508.84,1513.56 9524.94,1515.31 9539.43,1516.90 9553.54,1518.44 9568.41,1520.09 9581.81,1521.55 9598.96,1523.44 9616.00,1525.30 9631.96,1527.01 9643.10,1528.23 9650.37,1529.06 9659.96,1530.15 9669.85,1531.22 9681.68,1532.54 9692.56,1533.73 9701.33,1534.68 9714.47,1536.08 9723.24,1537.03 9733.42,1538.15 9745.14,1539.40 9755.52,1540.58 9766.22,1541.75"/>