<?xml version='1.0' encoding='utf-8'?>
<edges>
    <edge id="385.0" from="node_385_start" to="junction_82" numLanes="3" speed="13.89" type="town" shape="646751.40,3280932.82 646768.78,3280935.89 646768.78,3280935.89 646792.63,3280940.13 646792.63,3280940.13 646816.91,3280944.46 646816.91,3280944.46 646840.96,3280948.73 646840.96,3280948.73 646864.97,3280953.03 646864.97,3280953.03 646889.18,3280957.28 646889.18,3280957.28 646913.97,3280961.66 646913.97,3280961.66 646937.33,3280965.85 646937.33,3280965.85 646961.33,3280970.08 646961.33,3280970.08 646985.23,3280974.34 646985.23,3280974.34 647009.15,3280978.61 647009.15,3280978.61 647033.27,3280982.88 647033.27,3280982.88 647057.86,3280987.26 647057.86,3280987.26 647081.45,3280991.48 647081.45,3280991.48 647105.62,3280995.74 647105.62,3280995.74 647129.55,3280999.94 647129.55,3280999.94 647153.67,3281004.22 647153.67,3281004.22 647177.66,3281008.46 647177.66,3281008.46 647201.42,3281012.70 647201.42,3281012.70 647225.57,3281017.00 647225.57,3281017.00 647250.08,3281021.38 647250.08,3281021.38 647285.97,3281027.72 647285.97,3281027.72 647321.73,3281034.01 647321.73,3281034.01 647346.12,3281038.35 647346.12,3281038.35 647370.26,3281042.64 647370.26,3281042.64 647406.79,3281049.16 647406.79,3281049.16 647430.65,3281053.40 647430.65,3281053.40 647455.01,3281057.73 647455.01,3281057.73 647478.26,3281061.83 647478.26,3281061.83 647502.31,3281066.09 647502.31,3281066.09 647526.43,3281070.37 647526.43,3281070.37 647562.74,3281076.80 647562.74,3281076.80 647598.50,3281083.20 647598.50,3281083.20 647634.71,3281089.69 647634.71,3281089.69 647683.11,3281098.33 647683.11,3281098.33 647719.07,3281104.72 647719.07,3281104.72 647755.42,3281111.16 647755.42,3281111.16 647779.81,3281115.50 647779.81,3281115.50 647803.56,3281119.71 647803.56,3281119.71 647827.42,3281123.97 647827.42,3281123.97 647839.46,3281126.11 647839.46,3281126.11 647863.42,3281130.34 647863.42,3281130.34 647875.48,3281132.48 647875.48,3281132.48 647899.31,3281136.70 647899.31,3281136.70 647923.93,3281141.08 647923.93,3281141.08 647947.18,3281145.22 647947.18,3281145.22 647971.56,3281149.49 647971.56,3281149.49 647995.89,3281153.81 647995.89,3281153.81 648019.57,3281158.02 648019.57,3281158.02 648044.36,3281162.41 648044.36,3281162.41 648068.73,3281166.76 648068.73,3281166.76 648104.33,3281173.12 648104.33,3281173.12 648140.21,3281179.48 648140.21,3281179.48 648176.48,3281185.91 648176.48,3281185.91 648200.99,3281190.22 648200.99,3281190.22 648224.63,3281194.40 648224.63,3281194.40 648248.89,3281198.72 648248.89,3281198.72 648284.50,3281205.01 648284.50,3281205.01 648320.77,3281211.55 648320.77,3281211.55 648356.96,3281218.00 648356.96,3281218.00 648393.20,3281224.47 648393.20,3281224.47 648441.13,3281232.94 648441.13,3281232.94 648477.15,3281239.29 648477.15,3281239.29 648525.65,3281247.97 648525.65,3281247.97 648561.44,3281254.32 648561.44,3281254.32 648597.59,3281260.77 648597.59,3281260.77 648633.81,3281267.23 648633.81,3281267.23 648669.85,3281273.62 648669.85,3281273.62 648705.53,3281280.03 648705.53,3281280.03 648741.97,3281286.43 648741.97,3281286.43 648790.18,3281294.99 648790.18,3281294.99 648826.12,3281301.39 648826.12,3281301.39 648862.16,3281307.80 648862.16,3281307.80 648898.15,3281314.24 648898.15,3281314.24 648934.37,3281320.65 648934.37,3281320.65 648970.19,3281326.97 648970.19,3281326.97 649006.80,3281333.45 649006.80,3281333.45 649043.05,3281339.85 649043.05,3281339.85 649079.18,3281346.27 649079.18,3281346.27 649127.46,3281354.85 649127.46,3281354.85 649174.83,3281363.24 649174.83,3281363.24 649211.60,3281369.77 649211.60,3281369.77 649247.43,3281376.17 649247.43,3281376.17 649271.24,3281380.41 649271.24,3281380.41 649307.75,3281386.93 649307.75,3281386.93 649355.84,3281395.47 649355.84,3281395.47 649391.60,3281401.80 649391.60,3281401.80 649428.08,3281408.25 649428.08,3281408.25 649476.12,3281416.74 649476.12,3281416.74 649524.01,3281425.27 649524.01,3281425.27 649559.52,3281431.61 649559.52,3281431.61 649596.41,3281438.20 649596.41,3281438.20 649632.54,3281444.56 649632.54,3281444.56 649680.72,3281453.08 649680.72,3281453.08 649729.40,3281461.70 649729.40,3281461.70 649765.25,3281468.01 649765.25,3281468.01 649801.36,3281474.40 649801.36,3281474.40 649837.71,3281480.91 649837.71,3281480.91 649873.83,3281487.35 649873.83,3281487.35 649922.32,3281495.84 649922.32,3281495.84 649958.26,3281501.92 649958.26,3281501.92 650006.80,3281509.56 650006.80,3281509.56 650043.79,3281515.03 650043.79,3281515.03 650091.72,3281521.66 650091.72,3281521.66 650128.36,3281526.62 650128.36,3281526.62 650165.24,3281531.56 650165.24,3281531.56 650213.49,3281538.13 650213.49,3281538.13 650249.68,3281543.05 650249.68,3281543.05 650285.94,3281548.01 650285.94,3281548.01 650322.74,3281552.97 650322.74,3281552.97 650358.90,3281557.91 650358.90,3281557.91 650382.98,3281561.16 650382.98,3281561.16 650419.26,3281566.08 650419.26,3281566.08 650456.37,3281571.08 650456.37,3281571.08 650505.11,3281577.68 650505.11,3281577.68 650541.42,3281582.60 650541.42,3281582.60 650589.85,3281589.10 650589.85,3281589.10 650626.31,3281594.04 650626.31,3281594.04 650662.55,3281598.86 650662.55,3281598.86 650699.23,3281603.85 650699.23,3281603.85 650735.51,3281608.76 650735.51,3281608.76 650771.71,3281613.70 650771.71,3281613.70 650807.81,3281618.61 650807.81,3281618.61 650832.59,3281621.88 650832.59,3281621.88 650856.79,3281625.11 650856.79,3281625.11 650880.89,3281628.37 650880.89,3281628.37 650904.85,3281631.62 650904.85,3281631.62 650929.13,3281634.92 650929.13,3281634.92 650953.68,3281638.29 650953.68,3281638.29 650990.04,3281643.20 650990.04,3281643.20 651026.00,3281648.14 651026.00,3281648.14 651062.03,3281653.02 651062.03,3281653.02 651110.44,3281659.52 651110.44,3281659.52 651146.90,3281664.39 651146.90,3281664.39 651170.14,3281667.55 651170.14,3281667.55 651207.02,3281672.54 651207.02,3281672.54 651254.80,3281679.05 651254.80,3281679.05 651279.49,3281682.46 651279.49,3281682.46 651315.80,3281687.30 651315.80,3281687.30 651352.03,3281692.19 651352.03,3281692.19 651375.75,3281695.35 651375.75,3281695.35 651400.67,3281698.74 651400.67,3281698.74 651436.62,3281703.61 651436.62,3281703.61 651472.69,3281708.49 651472.69,3281708.49 651509.23,3281713.40 651509.23,3281713.40 651544.93,3281718.12 651544.93,3281718.12 651581.06,3281722.96 651581.06,3281722.96 651617.51,3281727.91 651617.51,3281727.91 651641.93,3281731.18 651641.93,3281731.18 651665.46,3281734.36 651665.46,3281734.36 651689.84,3281737.71 651689.84,3281737.71 651714.02,3281741.04 651714.02,3281741.04 651738.46,3281744.36 651738.46,3281744.36 651762.64,3281747.59 651762.64,3281747.59 651787.10,3281750.94 651787.10,3281750.94 651811.06,3281754.20 651811.06,3281754.20 651834.48,3281757.42 651834.48,3281757.42 651859.58,3281760.77 651859.58,3281760.77 651883.82,3281764.02 651883.82,3281764.02 651907.70,3281767.19 651907.70,3281767.19 651944.03,3281772.18 651944.03,3281772.18 651968.74,3281775.49 651968.74,3281775.49 651980.56,3281776.99 651980.56,3281776.99 652004.69,3281780.30 652004.69,3281780.30 652028.87,3281783.61 652028.87,3281783.61 652053.12,3281786.90 652053.12,3281786.90 652077.71,3281790.16 652077.71,3281790.16 652101.83,3281793.44 652101.83,3281793.44 652126.66,3281796.84 652126.66,3281796.84 652137.81,3281798.35 652137.81,3281798.35 652162.41,3281801.72 652162.41,3281801.72 652186.27,3281804.94 652186.27,3281804.94 652210.73,3281808.26 652210.73,3281808.26 652235.01,3281811.52 652235.01,3281811.52 652259.03,3281814.75 652259.03,3281814.75 652283.35,3281817.95 652283.35,3281817.95 652319.96,3281822.94 652319.96,3281822.94 652343.59,3281826.16 652343.59,3281826.16 652367.70,3281829.39 652367.70,3281829.39 652404.41,3281834.33 652404.41,3281834.33 652429.56,3281837.79 652429.56,3281837.79 652452.89,3281840.95 652452.89,3281840.95 652465.27,3281842.61 652465.27,3281842.61 652477.51,3281844.29 652477.51,3281844.29 652489.55,3281845.95 652489.55,3281845.95 652526.02,3281850.87 652526.02,3281850.87 652537.91,3281852.53 652537.91,3281852.53 652562.72,3281855.84 652562.72,3281855.84 652585.70,3281858.97 652585.70,3281858.97 652620.62,3281863.67 652620.62,3281863.67 652644.05,3281866.81 652644.05,3281866.81 652656.88,3281868.51 652656.88,3281868.51 652681.50,3281871.83 652681.50,3281871.83 652704.91,3281875.03 652704.91,3281875.03 652727.07,3281878.04 652727.07,3281878.04 652734.07,3281878.95 652734.07,3281878.95 652750.96,3281881.24 652750.96,3281881.24 652768.77,3281883.61 652768.77,3281883.61 652786.71,3281886.00 652786.71,3281886.00 652802.59,3281888.15 652802.59,3281888.15 652818.57,3281890.27 652818.57,3281890.27 652826.19,3281891.30">
        <lane index="0" width="3.66" type="shoulder" disallow="all" />
        <lane index="1" width="3.66" />
        <lane index="2" width="3.66" />
    </edge>
    <edge id="386.0" from="node_386_start" to="node_386_end" numLanes="3" speed="13.89" type="town" shape="653298.64,3281955.56 653313.29,3281957.54 653313.29,3281957.54 653327.32,3281959.41 653327.32,3281959.41 653347.97,3281962.25 653347.97,3281962.25 653350.50,3281962.60">
        <lane index="0" width="3.66" type="shoulder" disallow="all" />
        <lane index="1" width="3.66" />
        <lane index="2" width="3.66" />
    </edge>
    <edge id="388.0" from="junction_82" to="node_388_end" numLanes="1" speed="13.89" type="town" shape="652910.53,3281895.31 652913.45,3281895.49 652913.45,3281895.49 652923.74,3281895.88 652923.74,3281895.88 652944.18,3281896.53 652944.18,3281896.53 652962.80,3281897.20 652962.80,3281897.20 652975.67,3281897.63 652975.67,3281897.63 652983.91,3281897.92">
        <lane index="0" width="3.66" />
    </edge>
    <edge id="389.0" from="node_389_start" to="junction_26" numLanes="2" speed="13.89" type="town" shape="653899.85,3282036.92 653908.75,3282038.13 653908.75,3282038.13 653922.27,3282039.95 653922.27,3282039.95 653935.77,3282041.82 653935.77,3282041.82 653949.96,3282043.77 653949.96,3282043.77 653965.88,3282046.02 653965.88,3282046.02 653974.17,3282047.20">
        <lane index="0" width="3.66" />
        <lane index="1" width="3.66" />
    </edge>
    <edge id="390.0" from="node_390_start" to="node_386_start" numLanes="3" speed="13.89" type="town" shape="652982.21,3281912.55 652997.11,3281914.55 652997.11,3281914.55 653012.29,3281916.63 653012.29,3281916.63 653027.34,3281918.63 653027.34,3281918.63 653039.83,3281920.36 653039.83,3281920.36 653058.69,3281922.88 653058.69,3281922.88 653075.28,3281925.16 653075.28,3281925.16 653092.93,3281927.55 653092.93,3281927.55 653110.48,3281929.91 653110.48,3281929.91 653127.97,3281932.31 653127.97,3281932.31 653146.75,3281934.87 653146.75,3281934.87 653164.40,3281937.28 653164.40,3281937.28 653183.99,3281939.93 653183.99,3281939.93 653204.26,3281942.71 653204.26,3281942.71 653220.29,3281944.87 653220.29,3281944.87 653239.55,3281947.50 653239.55,3281947.50 653256.16,3281949.75 653256.16,3281949.75 653274.73,3281952.29 653274.73,3281952.29 653291.60,3281954.60 653291.60,3281954.60 653298.64,3281955.56">
        <lane index="0" width="3.66" type="shoulder" disallow="all" />
        <lane index="1" width="3.66" />
        <lane index="2" width="3.66" />
    </edge>
    <edge id="391.0" from="node_386_end" to="node_391_end" numLanes="3" speed="13.89" type="town" shape="653350.50,3281962.60 653357.29,3281963.52 653357.29,3281963.52 653374.12,3281965.75 653374.12,3281965.75 653402.48,3281969.63">
        <lane index="0" width="3.66" type="shoulder" disallow="all" />
        <lane index="1" width="3.66" />
        <lane index="2" width="3.66" />
    </edge>
    <edge id="392.0" from="junction_26" to="node_392_end" numLanes="3" speed="13.89" type="town" shape="654090.60,3282064.93 654102.86,3282066.96 654102.86,3282066.96 654114.00,3282068.86 654114.00,3282068.86 654129.57,3282071.50 654129.57,3282071.50 654144.96,3282074.21 654144.96,3282074.21 654174.35,3282079.37 654174.35,3282079.37 654188.06,3282081.81 654188.06,3282081.81 654205.57,3282084.92 654205.57,3282084.92 654220.60,3282087.64 654220.60,3282087.64 654235.28,3282090.27 654235.28,3282090.27 654249.28,3282092.84 654249.28,3282092.84 654265.79,3282095.84 654265.79,3282095.84 654280.52,3282098.54 654280.52,3282098.54 654297.01,3282101.58 654297.01,3282101.58 654310.55,3282104.11 654310.55,3282104.11 654325.58,3282106.92 654325.58,3282106.92 654339.78,3282109.61 654339.78,3282109.61 654354.09,3282112.28 654354.09,3282112.28 654369.71,3282115.21 654369.71,3282115.21 654386.56,3282118.37 654386.56,3282118.37 654402.36,3282121.28 654402.36,3282121.28 654415.54,3282123.73 654415.54,3282123.73 654429.35,3282126.32 654429.35,3282126.32 654444.39,3282129.08 654444.39,3282129.08 654456.97,3282131.40 654456.97,3282131.40 654470.72,3282133.91 654470.72,3282133.91 654483.08,3282136.24 654483.08,3282136.24 654497.04,3282138.78 654497.04,3282138.78 654506.22,3282140.48 654506.22,3282140.48 654524.60,3282143.90 654524.60,3282143.90 654541.38,3282146.98 654541.38,3282146.98 654565.03,3282151.33 654565.03,3282151.33 654587.49,3282155.47 654587.49,3282155.47 654609.35,3282159.47 654609.35,3282159.47 654632.02,3282163.65 654632.02,3282163.65 654653.95,3282167.68 654653.95,3282167.68 654670.42,3282170.76 654670.42,3282170.76 654689.61,3282174.28 654689.61,3282174.28 654707.42,3282177.61 654707.42,3282177.61 654730.80,3282181.96 654730.80,3282181.96 654751.40,3282185.79 654751.40,3282185.79 654771.31,3282189.50 654771.31,3282189.50 654790.58,3282193.07 654790.58,3282193.07 654810.54,3282196.76 654810.54,3282196.76 654825.86,3282199.62 654825.86,3282199.62 654845.06,3282203.17 654845.06,3282203.17 654863.87,3282206.62 654863.87,3282206.62 654881.72,3282209.94 654881.72,3282209.94 654902.97,3282213.86 654902.97,3282213.86 654928.27,3282218.55 654928.27,3282218.55 654949.45,3282222.46 654949.45,3282222.46 654967.17,3282225.70 654967.17,3282225.70 654988.97,3282229.72 654988.97,3282229.72 655007.93,3282233.21 655007.93,3282233.21 655027.62,3282236.83 655027.62,3282236.83 655046.87,3282240.39 655046.87,3282240.39 655065.76,3282243.91 655065.76,3282243.91 655080.93,3282246.74 655080.93,3282246.74 655099.10,3282250.12 655099.10,3282250.12 655111.93,3282252.47 655111.93,3282252.47 655124.65,3282254.84 655124.65,3282254.84 655140.69,3282257.82 655140.69,3282257.82 655152.63,3282260.05 655152.63,3282260.05 655164.35,3282262.21 655164.35,3282262.21 655177.51,3282264.66 655177.51,3282264.66 655191.18,3282267.18 655191.18,3282267.18 655206.23,3282269.97 655206.23,3282269.97 655219.25,3282272.36 655219.25,3282272.36 655235.03,3282275.31 655235.03,3282275.31 655253.27,3282278.70 655253.27,3282278.70 655273.44,3282282.41 655273.44,3282282.41 655288.24,3282285.17 655288.24,3282285.17 655300.73,3282287.47 655300.73,3282287.47 655315.47,3282290.19 655315.47,3282290.19 655327.94,3282292.48 655327.94,3282292.48 655339.41,3282294.54 655339.41,3282294.54 655350.36,3282296.57 655350.36,3282296.57 655364.45,3282299.17 655364.45,3282299.17 655377.88,3282301.62 655377.88,3282301.62 655390.51,3282303.95 655390.51,3282303.95 655403.14,3282306.30 655403.14,3282306.30 655417.02,3282308.87 655417.02,3282308.87 655428.84,3282311.03 655428.84,3282311.03 655441.36,3282313.32 655441.36,3282313.32 655458.94,3282316.57 655458.94,3282316.57 655472.53,3282319.07 655472.53,3282319.07 655483.75,3282321.16 655483.75,3282321.16 655496.22,3282323.46 655496.22,3282323.46 655509.58,3282325.94 655509.58,3282325.94 655523.12,3282328.46 655523.12,3282328.46 655538.15,3282331.21 655538.15,3282331.21 655551.37,3282333.69 655551.37,3282333.69 655567.79,3282336.75 655567.79,3282336.75 655576.82,3282338.40 655576.82,3282338.40 655589.71,3282340.78 655589.71,3282340.78 655604.17,3282343.46 655604.17,3282343.46 655617.72,3282345.94 655617.72,3282345.94 655629.07,3282348.08 655629.07,3282348.08 655647.80,3282351.50 655647.80,3282351.50 655659.57,3282353.67 655659.57,3282353.67 655673.56,3282356.24 655673.56,3282356.24 655689.37,3282359.15 655689.37,3282359.15 655703.39,3282361.72 655703.39,3282361.72 655717.11,3282364.23 655717.11,3282364.23 655732.99,3282367.19 655732.99,3282367.19 655748.80,3282370.13 655748.80,3282370.13 655763.39,3282372.84 655763.39,3282372.84 655777.32,3282375.41 655777.32,3282375.41 655791.90,3282378.13 655791.90,3282378.13 655806.70,3282380.89 655806.70,3282380.89 655823.12,3282383.92 655823.12,3282383.92 655838.90,3282386.83 655838.90,3282386.83 655854.91,3282389.80 655854.91,3282389.80 655869.86,3282392.53 655869.86,3282392.53 655886.70,3282395.63 655886.70,3282395.63 655898.80,3282397.86 655898.80,3282397.86 655910.65,3282400.02 655910.65,3282400.02 655923.08,3282402.29 655923.08,3282402.29 655933.73,3282404.27 655933.73,3282404.27 655947.84,3282406.90 655947.84,3282406.90 655961.62,3282409.43 655961.62,3282409.43 655982.24,3282413.21 655982.24,3282413.21 656001.81,3282416.73 656001.81,3282416.73 656021.64,3282420.10 656021.64,3282420.10 656042.35,3282423.51 656042.35,3282423.51 656063.42,3282426.73 656063.42,3282426.73 656083.54,3282429.76 656083.54,3282429.76 656102.44,3282432.50 656102.44,3282432.50 656121.95,3282435.30 656121.95,3282435.30 656139.24,3282437.63 656139.24,3282437.63 656157.06,3282439.90 656157.06,3282439.90 656174.16,3282442.06 656174.16,3282442.06 656192.19,3282444.20 656192.19,3282444.20 656207.53,3282446.02 656207.53,3282446.02 656226.50,3282448.16 656226.50,3282448.16 656241.19,3282449.78 656241.19,3282449.78 656259.64,3282451.84 656259.64,3282451.84 656275.74,3282453.59 656275.74,3282453.59 656290.23,3282455.18 656290.23,3282455.18 656304.34,3282456.72 656304.34,3282456.72 656319.21,3282458.37 656319.21,3282458.37 656332.61,3282459.83 656332.61,3282459.83 656349.76,3282461.72 656349.76,3282461.72 656366.81,3282463.58 656366.81,3282463.58 656382.77,3282465.29 656382.77,3282465.29 656393.89,3282466.51 656393.89,3282466.51 656401.15,3282467.33 656401.15,3282467.33 656410.75,3282468.43 656410.75,3282468.43 656420.65,3282469.50 656420.65,3282469.50 656432.48,3282470.82 656432.48,3282470.82 656443.37,3282472.01 656443.37,3282472.01 656452.14,3282472.96 656452.14,3282472.96 656465.28,3282474.36 656465.28,3282474.36 656474.04,3282475.31 656474.04,3282475.31 656484.23,3282476.43 656484.23,3282476.43 656495.94,3282477.68 656495.94,3282477.68 656506.31,3282478.86 656506.31,3282478.86 656517.02,3282480.03">
        <lane index="0" width="3.66" type="shoulder" disallow="all" />
        <lane index="1" width="3.66" />
        <lane index="2" width="3.66" />
    </edge>
    <edge id="396.0" from="junction_82" to="node_390_start" numLanes="2" speed="13.89" type="town" shape="652909.63,3281902.65 652935.73,3281906.20 652935.73,3281906.20 652961.51,3281909.75 652961.51,3281909.75 652980.95,3281912.38 652980.95,3281912.38 652982.21,3281912.55">
        <lane index="0" width="3.66" />
        <lane index="1" width="3.66" />
    </edge>
    <edge id="398.0" from="node_388_end" to="node_398_end" numLanes="1" speed="13.89" type="town" shape="652983.91,3281897.92 652989.06,3281897.65 652989.06,3281897.65 652997.88,3281898.04 652997.88,3281898.04 653004.15,3281898.37 653004.15,3281898.37 653013.23,3281898.71 653013.23,3281898.71 653028.43,3281899.30 653028.43,3281899.30 653040.69,3281899.67 653040.69,3281899.67 653053.90,3281899.92 653053.90,3281899.92 653064.86,3281900.08 653064.86,3281900.08 653082.67,3281900.21">
        <lane index="0" width="3.66" />
    </edge>
    <edge id="400.0" from="node_391_end" to="node_389_start" numLanes="3" speed="13.89" type="town" shape="653402.48,3281969.63 653403.51,3281969.77 653403.51,3281969.77 653419.76,3281971.94 653419.76,3281971.94 653434.56,3281973.95 653434.56,3281973.95 653446.47,3281975.53 653446.47,3281975.53 653459.89,3281977.30 653459.89,3281977.30 653475.50,3281979.37 653475.50,3281979.37 653492.02,3281981.59 653492.02,3281981.59 653512.09,3281984.30 653512.09,3281984.30 653531.45,3281986.94 653531.45,3281986.94 653548.20,3281989.20 653548.20,3281989.20 653565.93,3281991.62 653565.93,3281991.62 653581.27,3281993.68 653581.27,3281993.68 653597.22,3281995.86 653597.22,3281995.86 653615.45,3281998.32 653615.45,3281998.32 653633.79,3282000.81 653633.79,3282000.81 653653.11,3282003.43 653653.11,3282003.43 653668.63,3282005.50 653668.63,3282005.50 653684.49,3282007.66 653684.49,3282007.66 653702.07,3282010.08 653702.07,3282010.08 653720.50,3282012.55 653720.50,3282012.55 653736.33,3282014.65 653736.33,3282014.65 653755.22,3282017.25 653755.22,3282017.25 653770.48,3282019.27 653770.48,3282019.27 653784.29,3282021.15 653784.29,3282021.15 653798.92,3282023.16 653798.92,3282023.16 653813.37,3282025.10 653813.37,3282025.10 653829.55,3282027.33 653829.55,3282027.33 653845.16,3282029.47 653845.16,3282029.47 653861.96,3282031.78 653861.96,3282031.78 653876.51,3282033.76 653876.51,3282033.76 653895.07,3282036.27 653895.07,3282036.27 653899.85,3282036.92">
        <lane index="0" width="3.66" type="shoulder" disallow="all" />
        <lane index="1" width="3.66" />
        <lane index="2" width="3.66" />
    </edge>
    <edge id="402.0" from="node_402_start" to="junction_26" numLanes="1" speed="13.89" type="town" shape="653605.90,3281913.39 653653.11,3281925.18 653653.11,3281925.18 653729.80,3281951.73 653729.80,3281951.73 653817.02,3281988.41 653817.02,3281988.41 653841.28,3281998.54 653841.28,3281998.54 653860.10,3282005.98 653860.10,3282005.98 653873.69,3282010.97 653873.69,3282010.97 653891.10,3282016.36 653891.10,3282016.36 653911.54,3282022.48 653911.54,3282022.48 653941.58,3282031.16 653941.58,3282031.16 653955.79,3282035.00 653955.79,3282035.00 653965.90,3282037.61 653965.90,3282037.61 653975.07,3282039.88">
        <lane index="0" width="3.66" />
    </edge>
</edges>