<?xml version='1.0' encoding='utf-8'?>
<connections>
    <connection from="941.0" to="839.0" fromLane="3" toLane="4" />
    <connection from="941.0" to="839.0" fromLane="1" toLane="2" />
    <connection from="941.0" to="839.0" fromLane="0" toLane="1" />
    <connection from="941.0" to="839.0" fromLane="2" toLane="3" />
    <connection from="841.0" to="848.0" fromLane="2" toLane="2" />
    <connection from="841.0" to="848.0" fromLane="0" toLane="0" />
    <connection from="841.0" to="848.0" fromLane="1" toLane="1" />
    <connection from="97.0" to="938.0" fromLane="4" toLane="4" />
    <connection from="97.0" to="938.0" fromLane="3" toLane="3" />
    <connection from="97.0" to="938.0" fromLane="2" toLane="2" />
    <connection from="97.0" to="938.0" fromLane="1" toLane="1" />
    <connection from="99.0" to="merge_zone_8" fromLane="4" toLane="5" />
    <connection from="99.0" to="merge_zone_8" fromLane="3" toLane="4" />
    <connection from="99.0" to="merge_zone_8" fromLane="2" toLane="3" />
    <connection from="99.0" to="merge_zone_8" fromLane="1" toLane="2" />
    <connection from="merge_zone_8" to="92.0" fromLane="5" toLane="4" />
    <connection from="merge_zone_8" to="92.0" fromLane="4" toLane="3" />
    <connection from="merge_zone_8" to="92.0" fromLane="3" toLane="2" />
    <connection from="merge_zone_8" to="92.0" fromLane="2" toLane="1" />
    <connection from="103.0" to="merge_zone_8" fromLane="0" toLane="0" />
    <connection from="merge_zone_8" to="92.0" fromLane="0" toLane="4" dir="r" state="m" />
</connections>