<?xml version="1.0" encoding="UTF-8"?>

<!-- generated on 2025-10-19 17:35:16 by Eclipse SUMO netconvert Version 1.23.1
<netconvertConfiguration xmlns:xsi="http://www.w3.org/2001/XMLSchema-instance" xsi:noNamespaceSchemaLocation="http://sumo.dlr.de/xsd/netconvertConfiguration.xsd">

    <input>
        <node-files value="/home/sdai/harry/TeraSim/jupiter/eb/jupiter_eb_tiles/tile_0000/tile_0000.nod.xml"/>
        <edge-files value="/home/sdai/harry/TeraSim/jupiter/eb/jupiter_eb_tiles/tile_0000/tile_0000.edg.xml"/>
        <connection-files value="/home/sdai/harry/TeraSim/jupiter/eb/jupiter_eb_tiles/tile_0000/tile_0000.con.xml"/>
    </input>

    <output>
        <output-file value="/home/sdai/harry/TeraSim/jupiter/eb/jupiter_eb_tiles/tile_0000/tile_0000.net.xml"/>
        <output.street-names value="true"/>
        <output.original-names value="true"/>
    </output>

    <processing>
        <geometry.remove value="false"/>
        <geometry.min-dist value="0.5"/>
        <edges.join value="false"/>
    </processing>

    <junctions>
        <no-internal-links value="false"/>
        <no-turnarounds value="true"/>
        <junctions.join value="true"/>
        <junctions.join-dist value="10"/>
        <junctions.corner-detail value="5"/>
        <junctions.internal-link-detail value="5"/>
        <junctions.limit-turn-speed value="5.5"/>
        <rectangular-lane-cut value="true"/>
        <check-lane-foes.all value="true"/>
    </junctions>

</netconvertConfiguration>
-->

<net version="1.20" junctionCornerDetail="5" junctionLinkDetail="5" rectangularLaneCut="true" limitTurnSpeed="5.50" checkLaneFoesAll="1" xmlns:xsi="http://www.w3.org/2001/XMLSchema-instance" xsi:noNamespaceSchemaLocation="http://sumo.dlr.de/xsd/net_file.xsd">

    <location netOffset="-563887.05,-3258169.84" convBoundary="0.00,0.00,8709.39,3076.58" origBoundary="0.00,0.00,572891.43,3261363.44" projParameter="!"/>

    <edge id=":j_merge_end_8_0" function="internal">
        <lane id=":j_merge_end_8_0_0" index="0" disallow="all" speed="13.89" length="39.09" width="3.66" shape="1868.81,666.41 1878.97,673.18 1883.50,681.53 1888.03,689.88 1898.18,696.65"/>
        <lane id=":j_merge_end_8_0_1" index="1" speed="13.89" length="39.09" width="3.66" shape="1866.28,673.28 1901.98,686.35"/>
        <lane id=":j_merge_end_8_0_2" index="2" speed="13.89" length="39.09" width="3.66" shape="1865.02,676.71 1900.71,689.78"/>
        <lane id=":j_merge_end_8_0_3" index="3" speed="13.89" length="39.09" width="3.66" shape="1863.76,680.15 1899.45,693.22"/>
        <lane id=":j_merge_end_8_0_4" index="4" disallow="all" speed="13.89" length="39.09" width="3.66" shape="1862.49,683.58 1898.18,696.65"/>
    </edge>
    <edge id=":j_merge_start_8_0" function="internal">
        <lane id=":j_merge_start_8_0_0" index="0" speed="13.89" length="50.01" width="3.66" shape="1600.20,575.27 1647.13,592.55"/>
        <lane id=":j_merge_start_8_0_1" index="1" speed="13.89" length="50.01" width="3.66" shape="1598.94,578.71 1645.87,595.98"/>
        <lane id=":j_merge_start_8_0_2" index="2" speed="13.89" length="50.01" width="3.66" shape="1597.67,582.14 1644.60,599.42"/>
        <lane id=":j_merge_start_8_0_3" index="3" disallow="all" speed="13.89" length="50.01" width="3.66" shape="1596.41,585.57 1643.34,602.85"/>
    </edge>
    <edge id=":j_merge_start_8_4" function="internal">
        <lane id=":j_merge_start_8_4_0" index="0" speed="13.89" length="50.25" width="3.66" shape="1604.32,564.11 1610.07,566.99 1619.92,572.29 1633.30,578.89 1649.66,585.68"/>
    </edge>
    <edge id=":junction_45_0" function="internal">
        <lane id=":junction_45_0_0" index="0" speed="13.89" length="20.29" width="3.66" shape="4191.13,1402.30 4209.94,1409.07"/>
        <lane id=":junction_45_0_1" index="1" speed="13.89" length="20.29" width="3.66" shape="4191.13,1402.30 4194.50,1404.22 4198.08,1406.95 4202.62,1409.93 4208.86,1412.56"/>
    </edge>
    <edge id=":junction_45_2" function="internal">
        <lane id=":junction_45_2_0" index="0" speed="13.89" length="19.86" width="3.66" shape="4189.88,1406.71 4208.86,1412.56"/>
        <lane id=":junction_45_2_1" index="1" speed="13.89" length="19.86" width="3.66" shape="4188.80,1410.21 4207.78,1416.06"/>
        <lane id=":junction_45_2_2" index="2" speed="13.89" length="19.86" width="3.66" shape="4187.72,1413.70 4206.70,1419.56"/>
        <lane id=":junction_45_2_3" index="3" disallow="all" speed="13.89" length="19.86" width="3.66" shape="4186.64,1417.20 4205.61,1423.05"/>
    </edge>
    <edge id=":junction_46_0" function="internal">
        <lane id=":junction_46_0_0" index="0" speed="13.89" length="68.74" width="3.66" shape="5616.39,1880.92 5679.24,1908.76"/>
    </edge>
    <edge id=":junction_46_1" function="internal">
        <lane id=":junction_46_1_0" index="0" speed="13.89" length="68.75" width="3.66" shape="5614.88,1884.58 5679.24,1908.76"/>
        <lane id=":junction_46_1_1" index="1" speed="13.89" length="68.75" width="3.66" shape="5613.60,1888.01 5677.96,1912.18"/>
        <lane id=":junction_46_1_2" index="2" speed="13.89" length="68.75" width="3.66" shape="5612.32,1891.44 5676.67,1915.61"/>
    </edge>
    <edge id=":junction_64_0" function="internal">
        <lane id=":junction_64_0_0" index="0" speed="13.89" length="160.38" width="3.66" shape="2892.62,1005.64 3045.82,1053.10"/>
        <lane id=":junction_64_0_1" index="1" speed="13.89" length="160.38" width="3.66" shape="2891.53,1009.14 3044.74,1056.59"/>
        <lane id=":junction_64_0_2" index="2" speed="13.89" length="160.38" width="3.66" shape="2890.45,1012.64 3043.65,1060.09"/>
        <lane id=":junction_64_0_3" index="3" disallow="all" speed="13.89" length="160.38" width="3.66" shape="2889.36,1016.13 3042.57,1063.58"/>
    </edge>
    <edge id=":node_100_end_0" function="internal">
        <lane id=":node_100_end_0_0" index="0" speed="13.89" length="0.30" width="3.66" shape="556.92,191.32 557.20,191.43"/>
        <lane id=":node_100_end_0_1" index="1" speed="13.89" length="0.30" width="3.66" shape="555.65,194.76 555.93,194.86"/>
        <lane id=":node_100_end_0_2" index="2" speed="13.89" length="0.30" width="3.66" shape="554.38,198.19 554.66,198.29"/>
    </edge>
    <edge id=":node_100_start_0" function="internal">
        <lane id=":node_100_start_0_0" index="0" speed="13.89" length="0.30" width="3.66" shape="549.93,188.74 550.21,188.84"/>
        <lane id=":node_100_start_0_1" index="1" speed="13.89" length="0.30" width="3.66" shape="548.66,192.17 548.94,192.27"/>
        <lane id=":node_100_start_0_2" index="2" speed="13.89" length="0.30" width="3.66" shape="547.39,195.60 547.67,195.70"/>
    </edge>
    <edge id=":node_104_end_0" function="internal">
        <lane id=":node_104_end_0_0" index="0" speed="13.89" length="0.30" width="3.66" shape="6243.05,2121.07 6243.33,2121.17"/>
        <lane id=":node_104_end_0_1" index="1" speed="13.89" length="0.30" width="3.66" shape="6241.76,2124.49 6242.04,2124.60"/>
        <lane id=":node_104_end_0_2" index="2" speed="13.89" length="0.30" width="3.66" shape="6240.47,2127.91 6240.75,2128.02"/>
    </edge>
    <edge id=":node_104_start_0" function="internal">
        <lane id=":node_104_start_0_0" index="0" speed="13.89" length="0.29" width="3.66" shape="5884.82,1986.10 5885.13,1986.21"/>
        <lane id=":node_104_start_0_1" index="1" speed="13.89" length="0.29" width="3.66" shape="5883.56,1989.53 5883.84,1989.64"/>
        <lane id=":node_104_start_0_2" index="2" speed="13.89" length="0.29" width="3.66" shape="5882.30,1992.97 5882.54,1993.06"/>
    </edge>
    <edge id=":node_105_start_0" function="internal">
        <lane id=":node_105_start_0_0" index="0" speed="13.89" length="0.30" width="3.66" shape="5772.05,1943.66 5772.35,1943.77"/>
        <lane id=":node_105_start_0_1" index="1" speed="13.89" length="0.30" width="3.66" shape="5770.77,1947.08 5771.05,1947.19"/>
        <lane id=":node_105_start_0_2" index="2" speed="13.89" length="0.30" width="3.66" shape="5769.48,1950.51 5769.74,1950.61"/>
    </edge>
    <edge id=":node_837_end_0" function="internal">
        <lane id=":node_837_end_0_0" index="0" speed="13.89" length="0.29" width="3.66" shape="5608.13,1877.13 5608.40,1877.25"/>
    </edge>
    <edge id=":node_839_end_0" function="internal">
        <lane id=":node_839_end_0_0" index="0" speed="13.89" length="3.28" width="3.66" shape="5058.27,1673.10 5061.36,1674.19"/>
    </edge>
    <edge id=":node_839_end_1" function="internal">
        <lane id=":node_839_end_1_0" index="0" speed="13.89" length="2.96" width="3.66" shape="5057.09,1676.57 5059.94,1677.52"/>
        <lane id=":node_839_end_1_1" index="1" speed="13.89" length="2.96" width="3.66" shape="5055.91,1680.04 5058.72,1680.97"/>
        <lane id=":node_839_end_1_2" index="2" speed="13.89" length="2.96" width="3.66" shape="5054.74,1683.50 5057.49,1684.42"/>
    </edge>
    <edge id=":node_840_end_0" function="internal">
        <lane id=":node_840_end_0_0" index="0" speed="13.89" length="8.06" width="3.66" shape="5148.01,1708.79 5155.40,1712.00"/>
    </edge>
    <edge id=":node_840_end_1" function="internal">
        <lane id=":node_840_end_1_0" index="0" speed="13.89" length="8.00" width="3.66" shape="5147.89,1709.24 5155.40,1712.00"/>
        <lane id=":node_840_end_1_1" index="1" speed="13.89" length="8.00" width="3.66" shape="5146.63,1712.68 5154.13,1715.43"/>
        <lane id=":node_840_end_1_2" index="2" speed="13.89" length="8.00" width="3.66" shape="5145.36,1716.11 5152.87,1718.87"/>
    </edge>
    <edge id=":node_844_end_0" function="internal">
        <lane id=":node_844_end_0_0" index="0" speed="13.89" length="7.99" width="3.66" shape="7369.92,2549.31 7377.41,2552.15"/>
        <lane id=":node_844_end_0_1" index="1" speed="13.89" length="7.99" width="3.66" shape="7368.64,2552.73 7376.10,2555.57"/>
    </edge>
    <edge id=":node_845_start_0" function="internal">
        <lane id=":node_845_start_0_0" index="0" speed="13.89" length="0.30" width="3.66" shape="7579.55,2629.83 7579.84,2629.94"/>
        <lane id=":node_845_start_0_1" index="1" speed="13.89" length="0.30" width="3.66" shape="7578.24,2633.25 7578.50,2633.35"/>
    </edge>
    <edge id=":node_85_start_0" function="internal">
        <lane id=":node_85_start_0_0" index="0" speed="13.89" length="3.00" width="3.66" shape="356.36,117.47 359.17,118.50"/>
        <lane id=":node_85_start_0_1" index="1" speed="13.89" length="3.00" width="3.66" shape="355.10,120.90 357.91,121.94"/>
        <lane id=":node_85_start_0_2" index="2" speed="13.89" length="3.00" width="3.66" shape="353.83,124.34 356.66,125.37"/>
    </edge>
    <edge id=":node_86_end_0" function="internal">
        <lane id=":node_86_end_0_0" index="0" speed="13.89" length="3.00" width="3.66" shape="2669.56,930.02 2672.46,930.93"/>
        <lane id=":node_86_end_0_1" index="1" speed="13.89" length="3.00" width="3.66" shape="2668.47,933.51 2671.35,934.42"/>
        <lane id=":node_86_end_0_2" index="2" speed="13.89" length="3.00" width="3.66" shape="2667.39,937.01 2670.23,937.91"/>
        <lane id=":node_86_end_0_3" index="3" speed="13.89" length="3.00" width="3.66" shape="2666.30,940.50 2669.12,941.39"/>
    </edge>
    <edge id=":node_86_start_0" function="internal">
        <lane id=":node_86_start_0_0" index="0" speed="13.89" length="3.00" width="3.66" shape="2374.94,838.93 2377.80,839.82"/>
        <lane id=":node_86_start_0_1" index="1" speed="13.89" length="3.00" width="3.66" shape="2373.85,842.43 2376.72,843.32"/>
        <lane id=":node_86_start_0_2" index="2" speed="13.89" length="3.00" width="3.66" shape="2372.77,845.93 2375.64,846.81"/>
        <lane id=":node_86_start_0_3" index="3" speed="13.89" length="3.00" width="3.66" shape="2371.69,849.42 2374.56,850.31"/>
    </edge>
    <edge id=":node_87_end_0" function="internal">
        <lane id=":node_87_end_0_0" index="0" speed="13.89" length="0.30" width="3.66" shape="179.08,48.29 179.37,48.40"/>
        <lane id=":node_87_end_0_1" index="1" speed="13.89" length="0.30" width="3.66" shape="177.81,51.73 178.10,51.83"/>
        <lane id=":node_87_end_0_2" index="2" speed="13.89" length="0.30" width="3.66" shape="176.55,55.16 176.83,55.27"/>
        <lane id=":node_87_end_0_3" index="3" speed="13.89" length="0.30" width="3.66" shape="175.28,58.60 175.56,58.70"/>
    </edge>
    <edge id=":node_88_end_0" function="internal">
        <lane id=":node_88_end_0_0" index="0" speed="13.89" length="7.56" width="3.66" shape="247.54,76.95 254.31,79.89"/>
        <lane id=":node_88_end_0_1" index="1" speed="13.89" length="7.56" width="3.66" shape="246.11,80.32 253.04,83.32"/>
        <lane id=":node_88_end_0_2" index="2" speed="13.89" length="7.56" width="3.66" shape="244.67,83.69 251.77,86.75"/>
    </edge>
    <edge id=":node_89_start_0" function="internal">
        <lane id=":node_89_start_0_0" index="0" speed="13.89" length="0.30" width="3.66" shape="2005.58,720.36 2005.85,720.45"/>
        <lane id=":node_89_start_0_1" index="1" speed="13.89" length="0.30" width="3.66" shape="2004.36,723.80 2004.63,723.90"/>
        <lane id=":node_89_start_0_2" index="2" speed="13.89" length="0.30" width="3.66" shape="2003.13,727.25 2003.42,727.35"/>
        <lane id=":node_89_start_0_3" index="3" speed="13.89" length="0.30" width="3.66" shape="2001.90,730.70 2002.20,730.81"/>
    </edge>
    <edge id=":node_90_end_0" function="internal">
        <lane id=":node_90_end_0_0" index="0" speed="13.89" length="0.30" width="3.66" shape="1130.24,402.35 1130.53,402.46"/>
        <lane id=":node_90_end_0_1" index="1" speed="13.89" length="0.30" width="3.66" shape="1128.98,405.79 1129.26,405.89"/>
        <lane id=":node_90_end_0_2" index="2" speed="13.89" length="0.30" width="3.66" shape="1127.72,409.22 1128.00,409.33"/>
    </edge>
    <edge id=":node_90_start_0" function="internal">
        <lane id=":node_90_start_0_0" index="0" speed="13.89" length="0.30" width="3.66" shape="683.32,237.92 683.61,238.02"/>
        <lane id=":node_90_start_0_1" index="1" speed="13.89" length="0.30" width="3.66" shape="682.04,241.34 682.32,241.45"/>
        <lane id=":node_90_start_0_2" index="2" speed="13.89" length="0.30" width="3.66" shape="680.75,244.77 681.03,244.87"/>
    </edge>
    <edge id=":node_91_end_0" function="internal">
        <lane id=":node_91_end_0_0" index="0" speed="13.89" length="0.30" width="3.66" shape="2703.51,940.82 2703.81,940.91"/>
        <lane id=":node_91_end_0_1" index="1" speed="13.89" length="0.30" width="3.66" shape="2702.40,944.31 2702.69,944.40"/>
        <lane id=":node_91_end_0_2" index="2" speed="13.89" length="0.30" width="3.66" shape="2701.29,947.79 2701.57,947.88"/>
        <lane id=":node_91_end_0_3" index="3" speed="13.89" length="0.30" width="3.66" shape="2700.17,951.28 2700.45,951.37"/>
    </edge>
    <edge id=":node_938_end_0" function="internal">
        <lane id=":node_938_end_0_0" index="0" speed="13.89" length="0.30" width="3.66" shape="3302.27,1132.46 3302.58,1132.55"/>
        <lane id=":node_938_end_0_1" index="1" speed="13.89" length="0.30" width="3.66" shape="3301.21,1135.96 3301.49,1136.05"/>
        <lane id=":node_938_end_0_2" index="2" speed="13.89" length="0.30" width="3.66" shape="3300.14,1139.46 3300.41,1139.54"/>
    </edge>
    <edge id=":node_939_end_0" function="internal">
        <lane id=":node_939_end_0_0" index="0" speed="13.89" length="0.30" width="3.66" shape="3383.81,1157.74 3384.08,1157.83"/>
        <lane id=":node_939_end_0_1" index="1" speed="13.89" length="0.30" width="3.66" shape="3382.72,1161.24 3383.00,1161.32"/>
        <lane id=":node_939_end_0_2" index="2" speed="13.89" length="0.30" width="3.66" shape="3381.63,1164.73 3381.93,1164.82"/>
    </edge>
    <edge id=":node_940_end_0" function="internal">
        <lane id=":node_940_end_0_0" index="0" speed="13.89" length="0.30" width="3.66" shape="3527.55,1202.21 3527.83,1202.30"/>
        <lane id=":node_940_end_0_1" index="1" speed="13.89" length="0.30" width="3.66" shape="3526.46,1205.71 3526.75,1205.80"/>
        <lane id=":node_940_end_0_2" index="2" speed="13.89" length="0.30" width="3.66" shape="3525.37,1209.20 3525.67,1209.29"/>
    </edge>
    <edge id=":node_941_start_0" function="internal">
        <lane id=":node_941_start_0_0" index="0" speed="13.89" length="3.00" width="3.66" shape="4111.70,1382.61 4114.56,1383.49"/>
        <lane id=":node_941_start_0_1" index="1" speed="13.89" length="3.00" width="3.66" shape="4110.62,1386.10 4113.48,1386.99"/>
        <lane id=":node_941_start_0_2" index="2" speed="13.89" length="3.00" width="3.66" shape="4109.53,1389.60 4112.40,1390.49"/>
    </edge>
    <edge id=":node_942_end_0" function="internal">
        <lane id=":node_942_end_0_0" index="0" speed="13.89" length="0.30" width="3.66" shape="3859.66,1304.77 3859.95,1304.85"/>
        <lane id=":node_942_end_0_1" index="1" speed="13.89" length="0.30" width="3.66" shape="3858.58,1308.26 3858.87,1308.35"/>
        <lane id=":node_942_end_0_2" index="2" speed="13.89" length="0.30" width="3.66" shape="3857.50,1311.76 3857.79,1311.85"/>
    </edge>
    <edge id=":node_94_end_0" function="internal">
        <lane id=":node_94_end_0_0" index="0" speed="13.89" length="0.30" width="3.66" shape="1284.38,459.03 1284.67,459.14"/>
        <lane id=":node_94_end_0_1" index="1" speed="13.89" length="0.30" width="3.66" shape="1283.12,462.47 1283.41,462.57"/>
        <lane id=":node_94_end_0_2" index="2" speed="13.89" length="0.30" width="3.66" shape="1281.86,465.90 1282.15,466.01"/>
    </edge>
    <edge id=":node_94_start_0" function="internal">
        <lane id=":node_94_start_0_0" index="0" speed="13.89" length="0.10" width="3.66" shape="1137.34,404.95 1137.33,404.95"/>
        <lane id=":node_94_start_0_1" index="1" speed="13.89" length="0.10" width="3.66" shape="1136.07,408.39 1136.07,408.39"/>
        <lane id=":node_94_start_0_2" index="2" speed="13.89" length="0.10" width="3.66" shape="1134.81,411.83 1134.81,411.83"/>
    </edge>

    <edge id="100.0" from="node_100_start" to="node_100_end" priority="-1" type="town">
        <lane id="100.0_0" index="0" disallow="all" speed="13.89" length="7.15" width="3.66" shape="551.49,185.41 558.19,187.89" type="shoulder"/>
        <lane id="100.0_1" index="1" speed="13.89" length="7.15" width="3.66" shape="550.21,188.84 556.92,191.32"/>
        <lane id="100.0_2" index="2" speed="13.89" length="7.15" width="3.66" shape="548.94,192.27 555.65,194.76"/>
        <lane id="100.0_3" index="3" speed="13.89" length="7.15" width="3.66" shape="547.67,195.70 554.38,198.19"/>
        <lane id="100.0_4" index="4" disallow="all" speed="13.89" length="7.15" width="3.66" shape="546.40,199.14 553.10,201.62" type="shoulder"/>
    </edge>
    <edge id="103.0" from="node_103_start" to="j_merge_start_8" priority="-1" type="town" shape="1486.22,520.59 1495.00,524.06 1509.06,529.62 1527.29,536.71 1544.99,543.66 1560.87,549.84 1578.07,556.42 1596.44,563.17 1603.66,565.82">
        <lane id="103.0_0" index="0" speed="13.89" length="125.84" width="3.66" shape="1486.89,518.89 1495.68,522.36 1509.73,527.92 1527.96,535.01 1545.66,541.96 1561.53,548.13 1578.72,554.71 1597.07,561.45 1604.32,564.11"/>
    </edge>
    <edge id="104.0" from="node_104_start" to="node_104_end" priority="-1" type="town" shape="5881.78,1994.73 5913.43,2006.73 5957.92,2023.45 6031.96,2051.33 6102.99,2078.02 6192.60,2111.79 6239.96,2129.68">
        <lane id="104.0_0" index="0" speed="13.89" length="382.49" width="3.66" shape="5885.13,1986.21 5916.66,1998.17 5961.15,2014.89 6035.18,2042.77 6106.22,2069.46 6195.83,2103.23 6243.05,2121.07"/>
        <lane id="104.0_1" index="1" speed="13.89" length="382.49" width="3.66" shape="5883.84,1989.64 5915.37,2001.59 5959.86,2018.31 6033.90,2046.19 6104.93,2072.88 6194.54,2106.65 6241.76,2124.49"/>
        <lane id="104.0_2" index="2" speed="13.89" length="382.49" width="3.66" shape="5882.54,1993.06 5914.08,2005.02 5958.57,2021.74 6032.61,2049.62 6103.64,2076.31 6193.25,2110.08 6240.47,2127.91"/>
    </edge>
    <edge id="105.0" from="node_105_start" to="node_104_start" priority="-1" type="town" shape="5768.96,1952.27 5797.78,1963.24 5856.97,1985.66 5881.78,1994.73">
        <lane id="105.0_0" index="0" speed="13.89" length="120.22" width="3.66" shape="5772.35,1943.77 5801.03,1954.69 5860.16,1977.08 5884.82,1986.10"/>
        <lane id="105.0_1" index="1" speed="13.89" length="120.22" width="3.66" shape="5771.05,1947.19 5799.73,1958.11 5858.89,1980.51 5883.56,1989.53"/>
        <lane id="105.0_2" index="2" speed="13.89" length="120.22" width="3.66" shape="5769.74,1950.61 5798.43,1961.53 5857.61,1983.94 5882.30,1992.97"/>
    </edge>
    <edge id="837.0" from="node_837_start" to="node_837_end" priority="-1" type="town" shape="5374.47,1779.08 5469.91,1819.07 5529.98,1844.30 5549.84,1852.97 5579.33,1866.31 5590.90,1871.50 5607.51,1878.86">
        <lane id="837.0_0" index="0" speed="13.89" length="253.42" width="3.66" shape="5375.18,1777.39 5470.62,1817.38 5530.70,1842.62 5550.59,1851.30 5580.09,1864.64 5591.65,1869.83 5608.13,1877.13"/>
    </edge>
    <edge id="838.0" from="node_838_start" to="junction_45" priority="-1" type="town" shape="3880.62,1294.77 3920.12,1309.19 3961.64,1323.76 4045.21,1350.76 4091.31,1366.63 4147.80,1388.04 4195.73,1405.98">
        <lane id="838.0_0" index="0" speed="13.89" length="328.63" width="3.66" shape="3881.25,1293.05 3920.74,1307.47 3962.23,1322.03 4045.79,1349.02 4091.94,1364.91 4148.45,1386.33 4191.13,1402.30"/>
    </edge>
    <edge id="839.0" from="junction_45" to="node_839_end" priority="-1" type="town" shape="4205.07,1424.80 4258.18,1441.24 4311.36,1457.60 4364.48,1473.95 4379.68,1478.86 4393.65,1482.59 4405.69,1486.84 4417.59,1490.48 4444.71,1498.91 4470.66,1506.68 4524.24,1522.22 4577.56,1537.85 4630.69,1554.16 4683.88,1570.47 4737.00,1586.86 4790.14,1603.28 4843.28,1619.63 4896.27,1636.31 4949.14,1653.54 5001.78,1671.32 5054.44,1689.20">
        <lane id="839.0_0" index="0" speed="13.89" length="888.35" width="3.66" shape="4209.94,1409.07 4263.04,1425.50 4316.21,1441.86 4369.44,1458.24 4384.34,1463.06 4398.53,1466.84 4410.85,1471.19 4422.45,1474.74 4449.52,1483.16 4475.32,1490.88 4528.85,1506.41 4582.30,1522.07 4635.52,1538.41 4688.73,1554.73 4741.86,1571.12 4795.00,1587.54 4848.18,1603.90 4901.30,1620.62 4954.33,1637.91 5007.07,1655.72 5058.27,1673.10"/>
        <lane id="839.0_1" index="1" speed="13.89" length="888.35" width="3.66" shape="4208.86,1412.56 4261.96,1429.00 4315.13,1445.36 4368.34,1461.73 4383.31,1466.57 4397.44,1470.34 4409.70,1474.67 4421.37,1478.24 4448.45,1486.66 4474.28,1494.39 4527.83,1509.92 4581.24,1525.58 4634.45,1541.91 4687.65,1558.23 4740.78,1574.62 4793.92,1591.04 4847.09,1607.40 4900.18,1624.11 4953.18,1641.38 5005.89,1659.19 5057.09,1676.57"/>
        <lane id="839.0_2" index="2" speed="13.89" length="888.35" width="3.66" shape="4207.78,1416.06 4260.88,1432.50 4314.05,1448.85 4367.24,1465.22 4382.27,1470.08 4396.36,1473.84 4408.56,1478.15 4420.29,1481.74 4447.38,1490.16 4473.25,1497.90 4526.80,1513.44 4580.19,1529.09 4633.38,1545.41 4686.57,1561.72 4739.70,1578.12 4792.84,1594.54 4846.00,1610.89 4899.06,1627.60 4952.02,1644.86 5004.72,1662.65 5055.91,1680.04"/>
        <lane id="839.0_3" index="3" speed="13.89" length="888.35" width="3.66" shape="4206.70,1419.56 4259.80,1435.99 4312.98,1452.35 4366.13,1468.71 4381.24,1473.59 4395.28,1477.34 4407.41,1481.62 4419.21,1485.23 4446.32,1493.66 4472.22,1501.41 4525.78,1516.95 4579.14,1532.59 4632.30,1548.91 4685.50,1565.22 4738.62,1581.61 4791.76,1598.03 4844.91,1614.39 4897.95,1631.08 4950.87,1648.33 5003.54,1666.12 5054.74,1683.50"/>
        <lane id="839.0_4" index="4" disallow="all" speed="13.89" length="888.35" width="3.66" shape="4205.61,1423.05 4258.72,1439.49 4311.90,1455.85 4365.03,1472.20 4380.20,1477.10 4394.19,1480.84 4406.27,1485.10 4418.13,1488.73 4445.25,1497.16 4471.18,1504.92 4524.76,1520.46 4578.09,1536.10 4631.23,1552.41 4684.42,1568.72 4737.54,1585.11 4790.68,1601.53 4843.83,1617.88 4896.83,1634.57 4949.72,1651.80 5002.37,1669.59 5053.56,1686.97" type="shoulder"/>
    </edge>
    <edge id="840.0" from="node_839_end" to="node_840_end" priority="-1" type="town" shape="5055.63,1685.70 5109.62,1704.93 5148.49,1719.21">
        <lane id="840.0_0" index="0" speed="13.89" length="93.45" width="3.66" shape="5059.94,1677.52 5112.74,1696.33 5147.89,1709.24"/>
        <lane id="840.0_1" index="1" speed="13.89" length="93.45" width="3.66" shape="5058.72,1680.97 5111.49,1699.77 5146.63,1712.68"/>
        <lane id="840.0_2" index="2" speed="13.89" length="93.45" width="3.66" shape="5057.49,1684.42 5110.25,1703.21 5145.36,1716.11"/>
    </edge>
    <edge id="841.0" from="node_840_end" to="junction_46" priority="-1" type="town" shape="5148.49,1719.21 5206.67,1740.58 5303.71,1777.19 5344.36,1792.77 5371.38,1802.78 5426.19,1823.46 5464.42,1837.73 5502.37,1852.03 5547.29,1868.96 5591.60,1885.67 5615.76,1894.67">
        <lane id="841.0_0" index="0" speed="13.89" length="490.81" width="3.66" shape="5155.40,1712.00 5209.87,1732.00 5306.97,1768.64 5347.59,1784.21 5374.59,1794.21 5429.41,1814.89 5467.64,1829.16 5505.60,1843.47 5550.52,1860.40 5594.81,1877.10 5614.88,1884.58"/>
        <lane id="841.0_1" index="1" speed="13.89" length="490.81" width="3.66" shape="5154.13,1715.43 5208.59,1735.43 5305.66,1772.06 5346.30,1787.63 5373.31,1797.64 5428.12,1818.32 5466.35,1832.59 5504.31,1846.89 5549.23,1863.82 5593.53,1880.53 5613.60,1888.01"/>
        <lane id="841.0_2" index="2" speed="13.89" length="490.81" width="3.66" shape="5152.87,1718.87 5207.31,1738.86 5304.36,1775.48 5345.01,1791.06 5372.02,1801.07 5426.84,1821.75 5465.07,1836.02 5503.02,1850.32 5547.94,1867.25 5592.25,1883.96 5612.32,1891.44"/>
    </edge>
    <edge id="843.0" from="node_839_end" to="node_840_end" priority="-1" type="town" shape="5059.13,1675.31 5064.91,1677.48 5076.67,1682.13 5136.52,1706.23 5151.14,1712.00">
        <lane id="843.0_0" index="0" speed="13.89" length="93.30" width="3.66" shape="5061.36,1674.19 5065.57,1675.77 5077.35,1680.43 5137.20,1704.53 5148.01,1708.79"/>
    </edge>
    <edge id="844.0" from="node_104_end" to="node_844_end" priority="-1" type="town" shape="6239.96,2129.68 6279.96,2144.76 6336.24,2165.86 6408.37,2192.91 6479.49,2219.91 6514.90,2233.32 6581.53,2257.84 6655.31,2285.84 6767.90,2328.14 6819.78,2348.21 6867.99,2366.29 6925.54,2388.00 6972.78,2405.90 7017.74,2422.87 7051.43,2435.56 7095.44,2452.18 7128.16,2464.33 7166.05,2478.60 7199.99,2491.49 7231.22,2503.22 7276.55,2520.29 7322.92,2537.50 7353.28,2548.91 7371.72,2555.85">
        <lane id="844.0_0" index="0" speed="13.89" length="1205.20" width="3.66" shape="6243.33,2121.17 6283.18,2136.20 6339.46,2157.29 6411.60,2184.35 6482.74,2211.35 6518.10,2224.75 6584.74,2249.27 6658.55,2277.28 6771.16,2319.59 6823.04,2339.66 6871.21,2357.73 6928.78,2379.44 6976.02,2397.34 7020.97,2414.31 7054.66,2427.00 7098.65,2443.61 7131.37,2455.76 7169.29,2470.04 7203.23,2482.93 7234.44,2494.66 7279.76,2511.72 7326.12,2528.93 7356.50,2540.35 7371.21,2545.88"/>
        <lane id="844.0_1" index="1" speed="13.89" length="1205.20" width="3.66" shape="6242.04,2124.60 6281.89,2139.62 6338.17,2160.72 6410.31,2187.77 6481.44,2214.78 6516.82,2228.18 6583.46,2252.70 6657.25,2280.70 6769.86,2323.01 6821.74,2343.08 6869.93,2361.15 6927.48,2382.86 6974.73,2400.76 7019.68,2417.73 7053.37,2430.42 7097.37,2447.04 7130.09,2459.19 7168.00,2473.46 7201.93,2486.35 7233.16,2498.08 7278.48,2515.15 7324.84,2532.36 7355.22,2543.77 7369.92,2549.31"/>
        <lane id="844.0_2" index="2" speed="13.89" length="1205.20" width="3.66" shape="6240.75,2128.02 6280.61,2143.05 6336.89,2164.15 6409.02,2191.20 6480.14,2218.20 6515.54,2231.61 6582.17,2256.13 6655.96,2284.13 6768.55,2326.43 6820.43,2346.50 6868.64,2364.58 6926.19,2386.29 6973.43,2404.19 7018.39,2421.16 7052.08,2433.85 7096.08,2450.47 7128.80,2462.62 7166.70,2476.89 7200.64,2489.78 7231.87,2501.51 7277.19,2518.58 7323.56,2535.79 7353.93,2547.20 7368.64,2552.73"/>
    </edge>
    <edge id="845.0" from="node_845_start" to="node_845_end" priority="-1" type="town" shape="7577.70,2635.00 7617.80,2650.87 7658.98,2667.32 7687.67,2678.85 7728.32,2695.08 7763.20,2708.85 7803.51,2724.86 7845.04,2740.84 7889.24,2756.78 7927.98,2770.56 7957.08,2780.75 7994.34,2794.28 8030.55,2807.70 8063.36,2820.31 8096.68,2833.50 8123.11,2843.98 8152.15,2855.33 8167.51,2861.44 8183.09,2867.70 8205.77,2876.69 8233.63,2887.60 8264.83,2900.08 8301.65,2914.64 8349.89,2933.87 8389.61,2949.67 8439.09,2969.26 8486.65,2988.23 8533.02,3006.59 8578.84,3024.63 8616.91,3039.76 8640.01,3049.00 8663.19,3058.03 8686.64,3067.54 8709.38,3076.58">
        <lane id="845.0_0" index="0" speed="13.89" length="1214.75" width="3.66" shape="7579.84,2629.94 7619.83,2645.77 7661.02,2662.22 7689.71,2673.75 7730.35,2689.98 7765.22,2703.75 7805.51,2719.75 7846.96,2735.70 7891.09,2751.61 7929.81,2765.38 7958.93,2775.58 7996.23,2789.13 8032.49,2802.56 8065.36,2815.20 8098.70,2828.40 8125.12,2838.87 8154.16,2850.22 8169.55,2856.34 8185.13,2862.60 8207.79,2871.58 8235.65,2882.50 8266.86,2894.98 8303.68,2909.54 8351.92,2928.77 8391.64,2944.57 8441.12,2964.16 8488.68,2983.13 8535.04,3001.48 8580.86,3019.52 8618.94,3034.66 8642.03,3043.89 8665.22,3052.93 8688.69,3062.45 8711.41,3071.48"/>
        <lane id="845.0_1" index="1" speed="13.89" length="1214.75" width="3.66" shape="7578.50,2633.35 7618.48,2649.17 7659.66,2665.62 7688.35,2677.15 7729.00,2693.38 7763.88,2707.15 7804.18,2723.16 7845.68,2739.13 7889.86,2755.06 7928.59,2768.83 7957.70,2779.03 7994.97,2792.56 8031.20,2805.99 8064.03,2818.61 8097.36,2831.80 8123.78,2842.28 8152.82,2853.63 8168.19,2859.74 8183.77,2866.00 8206.44,2874.99 8234.31,2885.90 8265.51,2898.38 8302.33,2912.94 8350.57,2932.17 8390.29,2947.97 8439.77,2967.56 8487.33,2986.53 8533.70,3004.89 8579.52,3022.93 8617.59,3038.06 8640.68,3047.30 8663.87,3056.33 8687.32,3065.84 8710.06,3074.88"/>
    </edge>