<?xml version='1.0' encoding='utf-8'?>
<nodes>
    <node id="node_100_start" x="564432.6669260372" y="3258370.6388760596" type="priority" />
    <node id="node_100_end" x="564439.661494566" y="3258373.2258008136" type="priority" />
    <node id="node_103_start" x="565373.2653940326" y="3258690.434765372" type="priority" />
    <node id="node_104_start" x="569768.8258453932" y="3260164.565514192" type="priority" />
    <node id="node_104_end" x="570127.0108736057" y="3260299.5156865628" type="priority" />
    <node id="node_105_start" x="569656.0050893673" y="3260122.108772799" type="priority" />
    <node id="node_837_start" x="569261.5210543507" y="3259948.916034142" type="priority" />
    <node id="node_837_end" x="569494.559883378" y="3260048.704244674" type="priority" />
    <node id="node_838_start" x="567767.6725153322" y="3259464.610858011" type="priority" />
    <node id="node_839_end" x="568941.489815233" y="3259859.0436927127" type="priority" />
    <node id="node_840_start" x="568942.6795069898" y="3259855.540175405" type="priority" />
    <node id="node_840_end" x="569035.5417773322" y="3259889.0508888476" type="priority" />
    <node id="node_843_start" x="568946.1845944144" y="3259845.1472081565" type="priority" />
    <node id="node_843_end" x="569038.1911384145" y="3259881.8375695744" type="priority" />
    <node id="node_844_end" x="571258.7656961906" y="3260725.68907221" type="priority" />
    <node id="node_845_start" x="571464.7506669657" y="3260804.837272801" type="priority" />
    <node id="node_845_end" x="572596.4329920769" y="3261246.4217099566" type="priority" />
    <node id="node_85_start" x="564240.4035670848" y="3258299.850116628" type="priority" />
    <node id="node_86_start" x="566258.5494872818" y="3259024.9505401184" type="priority" />
    <node id="node_86_end" x="566553.1126491787" y="3259116.0196020254" type="priority" />
    <node id="node_87_start" x="563887.0469952752" y="3258169.8406070974" type="priority" />
    <node id="node_87_end" x="564060.5659150524" y="3258233.6436421876" type="priority" />
    <node id="node_88_end" x="564133.1408088204" y="3258260.1027047555" type="priority" />
    <node id="node_89_start" x="565887.2733995792" y="3258905.7654021136" type="priority" />
    <node id="node_90_start" x="564566.0027780598" y="3258419.8037182023" type="priority" />
    <node id="node_90_end" x="565013.0170501316" y="3258584.270377471" type="priority" />
    <node id="node_91_end" x="566585.682172359" y="3259126.3936291207" type="priority" />
    <node id="node_938_end" x="567185.7099425977" y="3259314.588947926" type="priority" />
    <node id="node_939_end" x="567267.1964515842" y="3259339.858762216" type="priority" />
    <node id="node_94_start" x="565019.9686430254" y="3258586.818609896" type="priority" />
    <node id="node_94_end" x="565167.1646123443" y="3258640.947898202" type="priority" />
    <node id="node_940_end" x="567410.9412504482" y="3259384.3345208927" type="priority" />
    <node id="node_941_start" x="567996.3943237752" y="3259565.126856778" type="priority" />
    <node id="node_942_end" x="567743.0715997432" y="3259486.8941020486" type="priority" />
    <node id="node_108_end" x="572891.4295980254" y="3261363.4422895494" type="priority" />
    <node id="junction_59" x="0.0" y="0.0" type="priority" />
    <node id="junction_108" x="0.0" y="0.0" type="priority" />
    <node id="junction_4" x="0.0" y="0.0" type="priority" />
    <node id="junction_10" x="0.0" y="0.0" type="priority" />
    <node id="junction_11" x="0.0" y="0.0" type="priority" />
    <node id="junction_67" x="0.0" y="0.0" type="priority" />
    <node id="junction_60" x="0.0" y="0.0" type="priority" />
    <node id="junction_9" x="0.0" y="0.0" type="priority" />
    <node id="junction_65" x="0.0" y="0.0" type="priority" />
    <node id="junction_5" x="0.0" y="0.0" type="priority" />
    <node id="junction_68" x="0.0" y="0.0" type="priority" />
    <node id="junction_12" x="0.0" y="0.0" type="priority" />
    <node id="junction_66" x="0.0" y="0.0" type="priority" />
    <node id="junction_61" x="0.0" y="0.0" type="priority" />
    <node id="junction_13" x="0.0" y="0.0" type="priority" />
    <node id="junction_69" x="0.0" y="0.0" type="priority" />
    <node id="junction_2" x="0.0" y="0.0" type="priority" />
    <node id="junction_58" x="0.0" y="0.0" type="priority" />
    <node id="junction_15" x="0.0" y="0.0" type="priority" />
    <node id="junction_16" x="0.0" y="0.0" type="priority" />
    <node id="junction_71" x="0.0" y="0.0" type="priority" />
    <node id="junction_14" x="0.0" y="0.0" type="priority" />
    <node id="junction_72" x="0.0" y="0.0" type="priority" />
    <node id="junction_70" x="0.0" y="0.0" type="priority" />
    <node id="junction_1" x="0.0" y="0.0" type="priority" />
    <node id="junction_73" x="0.0" y="0.0" type="priority" />
    <node id="junction_17" x="0.0" y="0.0" type="priority" />
    <node id="junction_18" x="0.0" y="0.0" type="priority" />
    <node id="junction_19" x="0.0" y="0.0" type="priority" />
    <node id="junction_74" x="0.0" y="0.0" type="priority" />
    <node id="junction_76" x="0.0" y="0.0" type="priority" />
    <node id="junction_7" x="0.0" y="0.0" type="priority" />
    <node id="junction_20" x="0.0" y="0.0" type="priority" />
    <node id="junction_75" x="0.0" y="0.0" type="priority" />
    <node id="junction_21" x="0.0" y="0.0" type="priority" />
    <node id="junction_77" x="0.0" y="0.0" type="priority" />
    <node id="junction_78" x="0.0" y="0.0" type="priority" />
    <node id="junction_62" x="0.0" y="0.0" type="priority" />
    <node id="junction_22" x="0.0" y="0.0" type="priority" />
    <node id="junction_79" x="0.0" y="0.0" type="priority" />
    <node id="junction_23" x="0.0" y="0.0" type="priority" />
    <node id="junction_3" x="0.0" y="0.0" type="priority" />
    <node id="junction_80" x="0.0" y="0.0" type="priority" />
    <node id="junction_24" x="0.0" y="0.0" type="priority" />
    <node id="junction_25" x="0.0" y="0.0" type="priority" />
    <node id="junction_81" x="0.0" y="0.0" type="priority" />
    <node id="junction_26" x="0.0" y="0.0" type="priority" />
    <node id="junction_82" x="0.0" y="0.0" type="priority" />
    <node id="junction_27" x="0.0" y="0.0" type="priority" />
    <node id="junction_83" x="0.0" y="0.0" type="priority" />
    <node id="junction_28" x="0.0" y="0.0" type="priority" />
    <node id="junction_84" x="0.0" y="0.0" type="priority" />
    <node id="junction_85" x="0.0" y="0.0" type="priority" />
    <node id="junction_29" x="0.0" y="0.0" type="priority" />
    <node id="junction_86" x="0.0" y="0.0" type="priority" />
    <node id="junction_87" x="0.0" y="0.0" type="priority" />
    <node id="junction_30" x="0.0" y="0.0" type="priority" />
    <node id="junction_6" x="0.0" y="0.0" type="priority" />
    <node id="junction_88" x="0.0" y="0.0" type="priority" />
    <node id="junction_31" x="0.0" y="0.0" type="priority" />
    <node id="junction_89" x="0.0" y="0.0" type="priority" />
    <node id="junction_32" x="0.0" y="0.0" type="priority" />
    <node id="junction_33" x="0.0" y="0.0" type="priority" />
    <node id="junction_91" x="0.0" y="0.0" type="priority" />
    <node id="junction_34" x="0.0" y="0.0" type="priority" />
    <node id="junction_90" x="0.0" y="0.0" type="priority" />
    <node id="junction_92" x="0.0" y="0.0" type="priority" />
    <node id="junction_37" x="0.0" y="0.0" type="priority" />
    <node id="junction_36" x="0.0" y="0.0" type="priority" />
    <node id="junction_35" x="0.0" y="0.0" type="priority" />
    <node id="junction_94" x="0.0" y="0.0" type="priority" />
    <node id="junction_93" x="0.0" y="0.0" type="priority" />
    <node id="junction_38" x="0.0" y="0.0" type="priority" />
    <node id="junction_95" x="0.0" y="0.0" type="priority" />
    <node id="junction_96" x="0.0" y="0.0" type="priority" />
    <node id="junction_39" x="0.0" y="0.0" type="priority" />
    <node id="junction_111" x="0.0" y="0.0" type="priority" />
    <node id="junction_99" x="0.0" y="0.0" type="priority" />
    <node id="junction_97" x="0.0" y="0.0" type="priority" />
    <node id="junction_41" x="0.0" y="0.0" type="priority" />
    <node id="junction_40" x="0.0" y="0.0" type="priority" />
    <node id="junction_106" x="0.0" y="0.0" type="priority" />
    <node id="junction_100" x="0.0" y="0.0" type="priority" />
    <node id="junction_42" x="0.0" y="0.0" type="priority" />
    <node id="junction_101" x="0.0" y="0.0" type="priority" />
    <node id="junction_47" x="0.0" y="0.0" type="priority" />
    <node id="junction_43" x="0.0" y="0.0" type="priority" />
    <node id="junction_98" x="0.0" y="0.0" type="priority" />
    <node id="junction_103" x="0.0" y="0.0" type="priority" />
    <node id="junction_44" x="0.0" y="0.0" type="priority" />
    <node id="junction_102" x="0.0" y="0.0" type="priority" />
    <node id="junction_104" x="0.0" y="0.0" type="priority" />
    <node id="junction_63" x="0.0" y="0.0" type="priority" />
    <node id="junction_105" x="0.0" y="0.0" type="priority" />
    <node id="junction_48" x="0.0" y="0.0" type="priority" />
    <node id="junction_107" x="0.0" y="0.0" type="priority" />
    <node id="junction_49" x="0.0" y="0.0" type="priority" />
    <node id="junction_109" x="0.0" y="0.0" type="priority" />
    <node id="junction_50" x="0.0" y="0.0" type="priority" />
    <node id="junction_51" x="0.0" y="0.0" type="priority" />
    <node id="junction_110" x="0.0" y="0.0" type="priority" />
    <node id="junction_52" x="0.0" y="0.0" type="priority" />
    <node id="junction_53" x="0.0" y="0.0" type="priority" />
    <node id="junction_113" x="0.0" y="0.0" type="priority" />
    <node id="junction_54" x="0.0" y="0.0" type="priority" />
    <node id="junction_55" x="0.0" y="0.0" type="priority" />
    <node id="junction_57" x="0.0" y="0.0" type="priority" />
    <node id="junction_114" x="0.0" y="0.0" type="priority" />
    <node id="junction_56" x="0.0" y="0.0" type="priority" />
    <node id="junction_64" x="566852.4677994973" y="3259211.4430854525" type="priority" />
    <node id="junction_46" x="569524.2386888975" y="3260068.6692879125" type="priority" />
    <node id="j_merge_start_8" x="565482.8206796367" y="3258757.130289882" type="priority" />
    <node id="j_merge_end_8" x="565784.6001763678" y="3258868.213197923" type="priority" />
    <node id="junction_45" x="568082.6834387385" y="3259586.416943172" type="priority" />
</nodes>