<?xml version='1.0' encoding='utf-8'?>
<edges>
    <edge id="100.0" from="node_100_start" to="node_100_end" numLanes="5" speed="13.89" type="town" shape="564432.67,3258370.64 564439.66,3258373.23">
        <lane index="0" width="3.66" type="shoulder" disallow="all" />
        <lane index="1" width="3.66" />
        <lane index="2" width="3.66" />
        <lane index="3" width="3.66" />
        <lane index="4" width="3.66" type="shoulder" disallow="all" />
    </edge>
    <edge id="103.0" from="node_103_start" to="j_merge_start_8" numLanes="1" speed="13.89" type="town" shape="565373.27,3258690.43 565382.05,3258693.90 565382.05,3258693.90 565396.11,3258699.46 565396.11,3258699.46 565414.34,3258706.55 565414.34,3258706.55 565432.04,3258713.50 565432.04,3258713.50 565447.92,3258719.68 565447.92,3258719.68 565465.12,3258726.26 565465.12,3258726.26 565483.49,3258733.01 565483.49,3258733.01 565490.71,3258735.66">
        <lane index="0" width="3.66" />
    </edge>
    <edge id="104.0" from="node_104_start" to="node_104_end" numLanes="3" speed="13.89" type="town" shape="569768.83,3260164.57 569800.48,3260176.57 569800.48,3260176.57 569844.97,3260193.29 569844.97,3260193.29 569919.01,3260221.17 569919.01,3260221.17 569990.04,3260247.86 569990.04,3260247.86 570079.65,3260281.63 570079.65,3260281.63 570127.01,3260299.52">
        <lane index="0" width="3.66" />
        <lane index="1" width="3.66" />
        <lane index="2" width="3.66" />
    </edge>
    <edge id="105.0" from="node_105_start" to="node_104_start" numLanes="3" speed="13.89" type="town" shape="569656.01,3260122.11 569684.83,3260133.08 569684.83,3260133.08 569744.02,3260155.50 569744.02,3260155.50 569768.83,3260164.57">
        <lane index="0" width="3.66" />
        <lane index="1" width="3.66" />
        <lane index="2" width="3.66" />
    </edge>
    <edge id="837.0" from="node_837_start" to="node_837_end" numLanes="1" speed="13.89" type="town" shape="569261.52,3259948.92 569356.96,3259988.91 569356.96,3259988.91 569417.03,3260014.14 569417.03,3260014.14 569436.89,3260022.81 569436.89,3260022.81 569466.38,3260036.15 569466.38,3260036.15 569477.95,3260041.34 569477.95,3260041.34 569494.56,3260048.70">
        <lane index="0" width="3.66" />
    </edge>
    <edge id="838.0" from="node_838_start" to="junction_45" numLanes="1" speed="13.89" type="town" shape="567767.67,3259464.61 567807.17,3259479.03 567807.17,3259479.03 567848.69,3259493.60 567848.69,3259493.60 567932.26,3259520.60 567932.26,3259520.60 567978.36,3259536.47 567978.36,3259536.47 568034.85,3259557.88 568034.85,3259557.88 568082.78,3259575.82">
        <lane index="0" width="3.66" />
    </edge>
    <edge id="839.0" from="junction_45" to="node_839_end" numLanes="5" speed="13.89" type="town" shape="568092.12,3259594.64 568145.23,3259611.08 568145.23,3259611.08 568198.41,3259627.44 568198.41,3259627.44 568251.53,3259643.79 568251.53,3259643.79 568266.73,3259648.70 568266.73,3259648.70 568280.70,3259652.43 568280.70,3259652.43 568292.74,3259656.68 568292.74,3259656.68 568304.64,3259660.32 568304.64,3259660.32 568331.76,3259668.75 568331.76,3259668.75 568357.71,3259676.52 568357.71,3259676.52 568411.29,3259692.06 568411.29,3259692.06 568464.61,3259707.69 568464.61,3259707.69 568517.74,3259724.00 568517.74,3259724.00 568570.93,3259740.31 568570.93,3259740.31 568624.05,3259756.70 568624.05,3259756.70 568677.19,3259773.12 568677.19,3259773.12 568730.33,3259789.47 568730.33,3259789.47 568783.32,3259806.15 568783.32,3259806.15 568836.19,3259823.38 568836.19,3259823.38 568888.83,3259841.16 568888.83,3259841.16 568941.49,3259859.04">
        <lane index="0" width="3.66" />
        <lane index="1" width="3.66" />
        <lane index="2" width="3.66" />
        <lane index="3" width="3.66" />
        <lane index="4" width="3.66" type="shoulder" disallow="all" />
    </edge>
    <edge id="840.0" from="node_839_end" to="node_840_end" numLanes="3" speed="13.89" type="town" shape="568942.68,3259855.54 568996.67,3259874.77 568996.67,3259874.77 569035.54,3259889.05">
        <lane index="0" width="3.66" />
        <lane index="1" width="3.66" />
        <lane index="2" width="3.66" />
    </edge>
    <edge id="841.0" from="node_840_end" to="junction_46" numLanes="3" speed="13.89" type="town" shape="569035.54,3259889.05 569093.72,3259910.42 569093.72,3259910.42 569190.76,3259947.03 569190.76,3259947.03 569231.41,3259962.61 569231.41,3259962.61 569258.43,3259972.62 569258.43,3259972.62 569313.24,3259993.30 569313.24,3259993.30 569351.47,3260007.57 569351.47,3260007.57 569389.42,3260021.87 569389.42,3260021.87 569434.34,3260038.80 569434.34,3260038.80 569478.65,3260055.51 569478.65,3260055.51 569502.81,3260064.51">
        <lane index="0" width="3.66" />
        <lane index="1" width="3.66" />
        <lane index="2" width="3.66" />
    </edge>
    <edge id="843.0" from="node_839_end" to="node_840_end" numLanes="1" speed="13.89" type="town" shape="568946.18,3259845.15 568951.96,3259847.32 568951.96,3259847.32 568963.72,3259851.97 568963.72,3259851.97 569023.57,3259876.07 569023.57,3259876.07 569038.19,3259881.84">
        <lane index="0" width="3.66" />
    </edge>
    <edge id="844.0" from="node_104_end" to="node_844_end" numLanes="3" speed="13.89" type="town" shape="570127.01,3260299.52 570167.01,3260314.60 570167.01,3260314.60 570223.29,3260335.70 570223.29,3260335.70 570295.42,3260362.75 570295.42,3260362.75 570366.54,3260389.75 570366.54,3260389.75 570401.95,3260403.16 570401.95,3260403.16 570468.58,3260427.68 570468.58,3260427.68 570542.36,3260455.68 570542.36,3260455.68 570654.95,3260497.98 570654.95,3260497.98 570706.83,3260518.05 570706.83,3260518.05 570755.04,3260536.13 570755.04,3260536.13 570812.59,3260557.84 570812.59,3260557.84 570859.83,3260575.74 570859.83,3260575.74 570904.79,3260592.71 570904.79,3260592.71 570938.48,3260605.40 570938.48,3260605.40 570982.49,3260622.02 570982.49,3260622.02 571015.21,3260634.17 571015.21,3260634.17 571053.10,3260648.44 571053.10,3260648.44 571087.04,3260661.33 571087.04,3260661.33 571118.27,3260673.06 571118.27,3260673.06 571163.60,3260690.13 571163.60,3260690.13 571209.97,3260707.34 571209.97,3260707.34 571240.33,3260718.75 571240.33,3260718.75 571258.77,3260725.69">
        <lane index="0" width="3.66" />
        <lane index="1" width="3.66" />
        <lane index="2" width="3.66" />
    </edge>
    <edge id="845.0" from="node_845_start" to="node_845_end" numLanes="2" speed="13.89" type="town" shape="571464.75,3260804.84 571504.85,3260820.71 571504.85,3260820.71 571546.03,3260837.16 571546.03,3260837.16 571574.72,3260848.69 571574.72,3260848.69 571615.37,3260864.92 571615.37,3260864.92 571650.25,3260878.69 571650.25,3260878.69 571690.56,3260894.70 571690.56,3260894.70 571732.09,3260910.68 571732.09,3260910.68 571776.29,3260926.62 571776.29,3260926.62 571815.03,3260940.40 571815.03,3260940.40 571844.13,3260950.59 571844.13,3260950.59 571881.39,3260964.12 571881.39,3260964.12 571917.60,3260977.54 571917.60,3260977.54 571950.41,3260990.15 571950.41,3260990.15 571983.73,3261003.34 571983.73,3261003.34 572010.16,3261013.82 572010.16,3261013.82 572039.20,3261025.17 572039.20,3261025.17 572054.56,3261031.28 572054.56,3261031.28 572070.14,3261037.54 572070.14,3261037.54 572092.82,3261046.53 572092.82,3261046.53 572120.68,3261057.44 572120.68,3261057.44 572151.88,3261069.92 572151.88,3261069.92 572188.70,3261084.48 572188.70,3261084.48 572236.94,3261103.71 572236.94,3261103.71 572276.66,3261119.51 572276.66,3261119.51 572326.14,3261139.10 572326.14,3261139.10 572373.70,3261158.07 572373.70,3261158.07 572420.07,3261176.43 572420.07,3261176.43 572465.89,3261194.47 572465.89,3261194.47 572503.96,3261209.60 572503.96,3261209.60 572527.06,3261218.84 572527.06,3261218.84 572550.24,3261227.87 572550.24,3261227.87 572573.69,3261237.38 572573.69,3261237.38 572596.43,3261246.42">
        <lane index="0" width="3.66" />
        <lane index="1" width="3.66" />
    </edge>
    <edge id="846.0" from="node_844_end" to="node_845_start" numLanes="2" speed="13.89" type="town" shape="571258.77,3260725.69 571374.32,3260770.02 571374.32,3260770.02 571464.75,3260804.84">
        <lane index="0" width="3.66" />
        <lane index="1" width="3.66" />
    </edge>
    <edge id="848.0" from="junction_46" to="node_105_start" numLanes="3" speed="13.89" type="town" shape="569563.07,3260087.16 569656.01,3260122.11">
        <lane index="0" width="3.66" />
        <lane index="1" width="3.66" />
        <lane index="2" width="3.66" />
    </edge>
    <edge id="85.0" from="node_85_start" to="node_100_start" numLanes="5" speed="13.89" type="town" shape="564240.40,3258299.85 564246.08,3258301.93 564246.08,3258301.93 564253.51,3258304.71 564253.51,3258304.71 564262.75,3258308.14 564262.75,3258308.14 564271.36,3258311.27 564271.36,3258311.27 564282.57,3258315.35 564282.57,3258315.35 564294.36,3258319.73 564294.36,3258319.73 564311.07,3258325.87 564311.07,3258325.87 564329.13,3258332.53 564329.13,3258332.53 564348.39,3258339.60 564348.39,3258339.60 564375.35,3258349.55 564375.35,3258349.55 564398.48,3258358.07 564398.48,3258358.07 564423.73,3258367.33 564423.73,3258367.33 564432.67,3258370.64">
        <lane index="0" width="3.66" type="shoulder" disallow="all" />
        <lane index="1" width="3.66" />
        <lane index="2" width="3.66" />
        <lane index="3" width="3.66" />
        <lane index="4" width="3.66" type="shoulder" disallow="all" />
    </edge>
    <edge id="850.0" from="node_837_end" to="junction_46" numLanes="1" speed="13.89" type="town" shape="569494.56,3260048.70 569506.84,3260054.34">
        <lane index="0" width="3.66" />
    </edge>
    <edge id="86.0" from="node_86_start" to="node_86_end" numLanes="6" speed="13.89" type="town" shape="566258.55,3259024.95 566272.12,3259029.15 566272.12,3259029.15 566300.93,3259037.97 566300.93,3259037.97 566336.85,3259049.09 566336.85,3259049.09 566373.38,3259060.47 566373.38,3259060.47 566412.25,3259072.41 566412.25,3259072.41 566451.57,3259084.58 566451.57,3259084.58 566472.32,3259090.98 566472.32,3259090.98 566502.77,3259100.37 566502.77,3259100.37 566553.11,3259116.02">
        <lane index="0" width="3.66" type="shoulder" disallow="all" />
        <lane index="1" width="3.66" />
        <lane index="2" width="3.66" />
        <lane index="3" width="3.66" />
        <lane index="4" width="3.66" />
        <lane index="5" width="3.66" type="shoulder" disallow="all" />
    </edge>
    <edge id="87.0" from="node_87_start" to="node_87_end" numLanes="5" speed="13.89" type="town" shape="563887.05,3258169.84 563903.99,3258176.06 563903.99,3258176.06 563921.90,3258182.65 563921.90,3258182.65 563938.97,3258188.91 563938.97,3258188.91 563957.54,3258195.90 563957.54,3258195.90 563975.99,3258202.50 563975.99,3258202.50 563994.55,3258209.32 563994.55,3258209.32 564014.85,3258216.79 564014.85,3258216.79 564039.42,3258225.85 564039.42,3258225.85 564060.57,3258233.64">
        <lane index="0" width="3.66" />
        <lane index="1" width="3.66" />
        <lane index="2" width="3.66" />
        <lane index="3" width="3.66" />
        <lane index="4" width="3.66" type="shoulder" disallow="all" />
    </edge>
    <edge id="88.0" from="node_87_end" to="node_88_end" numLanes="5" speed="13.89" type="town" shape="564060.57,3258233.64 564083.07,3258241.95 564083.07,3258241.95 564100.38,3258248.29 564100.38,3258248.29 564109.61,3258251.69 564109.61,3258251.69 564122.07,3258255.55 564122.07,3258255.55 564125.60,3258256.89 564125.60,3258256.89 564133.14,3258260.10">
        <lane index="0" width="3.66" />
        <lane index="1" width="3.66" />
        <lane index="2" width="3.66" />
        <lane index="3" width="3.66" />
        <lane index="4" width="3.66" type="shoulder" disallow="all" />
    </edge>
    <edge id="89.0" from="node_89_start" to="node_86_start" numLanes="5" speed="13.89" type="town" shape="565887.27,3258905.77 565908.87,3258913.37 565908.87,3258913.37 565931.38,3258921.31 565931.38,3258921.31 565951.79,3258928.30 565951.79,3258928.30 565969.50,3258934.26 565969.50,3258934.26 565984.04,3258939.10 565984.04,3258939.10 565994.97,3258942.75 565994.97,3258942.75 566008.31,3258947.12 566008.31,3258947.12 566029.28,3258953.91 566029.28,3258953.91 566048.15,3258959.93 566048.15,3258959.93 566065.65,3258965.51 566065.65,3258965.51 566085.08,3258971.42 566085.08,3258971.42 566099.29,3258975.85 566099.29,3258975.85 566114.38,3258980.52 566114.38,3258980.52 566142.66,3258989.23 566142.66,3258989.23 566169.81,3258997.49 566169.81,3258997.49 566200.65,3259007.04 566200.65,3259007.04 566232.58,3259016.92 566232.58,3259016.92 566251.69,3259022.83 566251.69,3259022.83 566258.55,3259024.95">
        <lane index="0" width="3.66" />
        <lane index="1" width="3.66" />
        <lane index="2" width="3.66" />
        <lane index="3" width="3.66" />
        <lane index="4" width="3.66" type="shoulder" disallow="all" />
    </edge>
    <edge id="90.0" from="node_90_start" to="node_90_end" numLanes="5" speed="13.89" type="town" shape="564566.00,3258419.80 564578.90,3258424.66 564578.90,3258424.66 564601.28,3258432.66 564601.28,3258432.66 564628.50,3258442.70 564628.50,3258442.70 564642.64,3258447.85 564642.64,3258447.85 564663.43,3258455.59 564663.43,3258455.59 564727.14,3258479.02 564727.14,3258479.02 564802.66,3258506.84 564802.66,3258506.84 564852.75,3258525.17 564852.75,3258525.17 564893.46,3258540.20 564893.46,3258540.20 564932.34,3258554.54 564932.34,3258554.54 564968.64,3258567.87 564968.64,3258567.87 565002.03,3258580.24 565002.03,3258580.24 565013.02,3258584.27">
        <lane index="0" width="3.66" type="shoulder" disallow="all" />
        <lane index="1" width="3.66" />
        <lane index="2" width="3.66" />
        <lane index="3" width="3.66" />
        <lane index="4" width="3.66" type="shoulder" disallow="all" />
    </edge>
    <edge id="91.0" from="node_86_end" to="node_91_end" numLanes="5" speed="13.89" type="town" shape="566553.11,3259116.02 566565.40,3259119.94 566565.40,3259119.94 566578.23,3259124.01 566578.23,3259124.01 566585.68,3259126.39">
        <lane index="0" width="3.66" />
        <lane index="1" width="3.66" />
        <lane index="2" width="3.66" />
        <lane index="3" width="3.66" />
        <lane index="4" width="3.66" type="shoulder" disallow="all" />
    </edge>
    <edge id="92.0" from="j_merge_end_8" to="node_89_start" numLanes="5" speed="13.89" type="town" shape="565784.60,3258868.21 565808.65,3258877.06 565808.65,3258877.06 565823.26,3258882.49 565823.26,3258882.49 565836.95,3258887.56 565836.95,3258887.56 565852.88,3258893.44 565852.88,3258893.44 565868.14,3258898.97 565868.14,3258898.97 565887.27,3258905.77">
        <lane index="0" width="3.66" />
        <lane index="1" width="3.66" />
        <lane index="2" width="3.66" />
        <lane index="3" width="3.66" />
        <lane index="4" width="3.66" type="shoulder" disallow="all" />
    </edge>
    <edge id="938.0" from="junction_64" to="node_938_end" numLanes="5" speed="13.89" type="town" shape="566929.07,3259235.17 566949.78,3259241.60 566949.78,3259241.60 567015.22,3259261.84 567015.22,3259261.84 567040.68,3259269.75 567040.68,3259269.75 567065.29,3259277.36 567065.29,3259277.36 567100.97,3259288.38 567100.97,3259288.38 567118.94,3259293.89 567118.94,3259293.89 567136.74,3259299.52 567136.74,3259299.52 567175.10,3259311.37 567175.10,3259311.37 567185.71,3259314.59">
        <lane index="0" width="3.66" type="shoulder" disallow="all" />
        <lane index="1" width="3.66" />
        <lane index="2" width="3.66" />
        <lane index="3" width="3.66" />
        <lane index="4" width="3.66" type="shoulder" disallow="all" />
    </edge>
    <edge id="939.0" from="node_938_end" to="node_939_end" numLanes="5" speed="13.89" type="town" shape="567185.71,3259314.59 567210.90,3259322.41 567210.90,3259322.41 567223.63,3259326.34 567223.63,3259326.34 567236.26,3259330.26 567236.26,3259330.26 567251.87,3259335.08 567251.87,3259335.08 567267.20,3259339.86">
        <lane index="0" width="3.66" type="shoulder" disallow="all" />
        <lane index="1" width="3.66" />
        <lane index="2" width="3.66" />
        <lane index="3" width="3.66" />
        <lane index="4" width="3.66" type="shoulder" disallow="all" />
    </edge>
    <edge id="94.0" from="node_94_start" to="node_94_end" numLanes="5" speed="13.89" type="town" shape="565019.97,3258586.82 565036.68,3258592.95 565036.68,3258592.95 565069.13,3258604.84 565069.13,3258604.84 565114.88,3258621.76 565114.88,3258621.76 565167.16,3258640.95">
        <lane index="0" width="3.66" type="shoulder" disallow="all" />
        <lane index="1" width="3.66" />
        <lane index="2" width="3.66" />
        <lane index="3" width="3.66" />
        <lane index="4" width="3.66" type="shoulder" disallow="all" />
    </edge>
    <edge id="940.0" from="node_939_end" to="node_940_end" numLanes="5" speed="13.89" type="town" shape="567267.20,3259339.86 567339.11,3259361.98 567339.11,3259361.98 567410.94,3259384.33">
        <lane index="0" width="3.66" type="shoulder" disallow="all" />
        <lane index="1" width="3.66" />
        <lane index="2" width="3.66" />
        <lane index="3" width="3.66" />
        <lane index="4" width="3.66" type="shoulder" disallow="all" />
    </edge>
    <edge id="941.0" from="node_941_start" to="junction_45" numLanes="4" speed="13.89" type="town" shape="567996.39,3259565.13 568021.98,3259573.02 568021.98,3259573.02 568047.57,3259580.90 568047.57,3259580.90 568073.15,3259588.79">
        <lane index="0" width="3.66" />
        <lane index="1" width="3.66" />
        <lane index="2" width="3.66" />
        <lane index="3" width="3.66" type="shoulder" disallow="all" />
    </edge>
    <edge id="942.0" from="node_940_end" to="node_942_end" numLanes="5" speed="13.89" type="town" shape="567410.94,3259384.33 567466.30,3259401.46 567466.30,3259401.46 567521.66,3259418.49 567521.66,3259418.49 567576.98,3259435.70 567576.98,3259435.70 567632.39,3259452.67 567632.39,3259452.67 567687.73,3259469.75 567687.73,3259469.75 567743.07,3259486.89">
        <lane index="0" width="3.66" type="shoulder" disallow="all" />
        <lane index="1" width="3.66" />
        <lane index="2" width="3.66" />
        <lane index="3" width="3.66" />
        <lane index="4" width="3.66" type="shoulder" disallow="all" />
    </edge>
    <edge id="943.0" from="node_942_end" to="node_941_start" numLanes="5" speed="13.89" type="town" shape="567743.07,3259486.89 567793.75,3259502.51 567793.75,3259502.51 567844.41,3259518.17 567844.41,3259518.17 567895.10,3259533.77 567895.10,3259533.77 567945.76,3259549.39 567945.76,3259549.39 567996.39,3259565.13">
        <lane index="0" width="3.66" type="shoulder" disallow="all" />
        <lane index="1" width="3.66" />
        <lane index="2" width="3.66" />
        <lane index="3" width="3.66" />
        <lane index="4" width="3.66" type="shoulder" disallow="all" />
    </edge>
    <edge id="95.0" from="node_100_end" to="node_90_start" numLanes="5" speed="13.89" type="town" shape="564439.66,3258373.23 564450.40,3258377.20 564450.40,3258377.20 564475.68,3258386.63 564475.68,3258386.63 564501.96,3258396.11 564501.96,3258396.11 564525.90,3258404.98 564525.90,3258404.98 564551.90,3258414.50 564551.90,3258414.50 564566.00,3258419.80">
        <lane index="0" width="3.66" type="shoulder" disallow="all" />
        <lane index="1" width="3.66" />
        <lane index="2" width="3.66" />
        <lane index="3" width="3.66" />
        <lane index="4" width="3.66" type="shoulder" disallow="all" />
    </edge>
    <edge id="96.0" from="node_88_end" to="node_85_start" numLanes="4" speed="13.89" type="town" shape="564133.14,3258260.10 564136.12,3258261.45 564136.12,3258261.45 564149.07,3258266.23 564149.07,3258266.23 564168.58,3258273.47 564168.58,3258273.47 564179.17,3258277.36 564179.17,3258277.36 564191.03,3258281.71 564191.03,3258281.71 564204.60,3258286.69 564204.60,3258286.69 564222.94,3258293.43 564222.94,3258293.43 564240.40,3258299.85">
        <lane index="0" width="3.66" />
        <lane index="1" width="3.66" />
        <lane index="2" width="3.66" />
        <lane index="3" width="3.66" type="shoulder" disallow="all" />
    </edge>
    <edge id="97.0" from="node_91_end" to="junction_64" numLanes="5" speed="13.89" type="town" shape="566585.68,3259126.39 566605.18,3259132.67 566605.18,3259132.67 566631.83,3259141.44 566631.83,3259141.44 566658.99,3259150.54 566658.99,3259150.54 566683.77,3259158.68 566683.77,3259158.68 566711.71,3259167.76 566711.71,3259167.76 566742.55,3259177.39 566742.55,3259177.39 566775.87,3259187.72">
        <lane index="0" width="3.66" />
        <lane index="1" width="3.66" />
        <lane index="2" width="3.66" />
        <lane index="3" width="3.66" />
        <lane index="4" width="3.66" type="shoulder" disallow="all" />
    </edge>
    <edge id="98.0" from="node_90_end" to="node_94_start" numLanes="5" speed="13.89" type="town" shape="565013.02,3258584.27 565019.97,3258586.82">
        <lane index="0" width="3.66" type="shoulder" disallow="all" />
        <lane index="1" width="3.66" />
        <lane index="2" width="3.66" />
        <lane index="3" width="3.66" />
        <lane index="4" width="3.66" type="shoulder" disallow="all" />
    </edge>
    <edge id="99.0" from="node_94_end" to="j_merge_start_8" numLanes="5" speed="13.89" type="town" shape="565167.16,3258640.95 565169.56,3258641.83 565169.56,3258641.83 565242.61,3258668.68 565242.61,3258668.68 565281.93,3258683.19 565281.93,3258683.19 565321.63,3258697.82 565321.63,3258697.82 565381.27,3258719.72 565381.27,3258719.72 565413.63,3258731.57 565413.63,3258731.57 565442.37,3258742.25 565442.37,3258742.25 565468.88,3258751.99 565468.88,3258751.99 565482.82,3258757.13">
        <lane index="0" width="3.66" type="shoulder" disallow="all" />
        <lane index="1" width="3.66" />
        <lane index="2" width="3.66" />
        <lane index="3" width="3.66" />
        <lane index="4" width="3.66" type="shoulder" disallow="all" />
    </edge>
    <edge id="merge_zone_8" from="j_merge_start_8" to="j_merge_end_8" numLanes="6" speed="13.89" name="Merge zone 8" type="highway_merge" shape="565529.75,3258774.41 565529.75,3258774.41 565569.93,3258789.21 565569.93,3258789.21 565608.12,3258803.25 565608.12,3258803.25 565642.10,3258815.83 565642.10,3258815.83 565649.41,3258818.49 565649.41,3258818.49 565658.97,3258821.47 565658.97,3258821.47 565662.94,3258822.72 565662.94,3258822.72 565672.66,3258826.88 565672.66,3258826.88 565675.30,3258828.00 565675.30,3258828.00 565680.46,3258829.90 565680.46,3258829.90 565703.94,3258838.52 565703.94,3258838.52 565719.92,3258844.48 565719.92,3258844.48 565748.91,3258855.14">
        <lane index="0" width="3.66" />
        <lane index="1" width="3.66" type="shoulder" disallow="all" />
        <lane index="2" width="3.66" />
        <lane index="3" width="3.66" />
        <lane index="4" width="3.66" />
        <lane index="5" width="3.66" type="shoulder" disallow="all" />
    </edge>
</edges>