<?xml version='1.0' encoding='utf-8'?>
<connections>
    <connection from="433.0" to="merge_zone_34" fromLane="0" toLane="1" />
    <connection from="433.0" to="merge_zone_34" fromLane="1" toLane="2" />
    <connection from="merge_zone_34" to="434.0" fromLane="1" toLane="1" />
    <connection from="merge_zone_34" to="434.0" fromLane="2" toLane="2" />
    <connection from="439.0" to="merge_zone_34" fromLane="0" toLane="0" />
    <connection from="merge_zone_34" to="434.0" fromLane="0" toLane="2" dir="r" state="m" />
    <connection from="437.0" to="438.0" fromLane="0" toLane="0" />
    <connection from="437.0" to="432.0" fromLane="1" toLane="1" />
    <connection from="437.0" to="432.0" fromLane="2" toLane="2" />
</connections>