<?xml version="1.0" encoding="UTF-8"?>

<!-- generated on 2025-10-19 17:33:41 by Eclipse SUMO netconvert Version 1.23.1
<netconvertConfiguration xmlns:xsi="http://www.w3.org/2001/XMLSchema-instance" xsi:noNamespaceSchemaLocation="http://sumo.dlr.de/xsd/netconvertConfiguration.xsd">

    <input>
        <node-files value="/home/sdai/harry/TeraSim/jupiter/wb/jupiter_wb_tiles/tile_0044/tile_0044.nod.xml"/>
        <edge-files value="/home/sdai/harry/TeraSim/jupiter/wb/jupiter_wb_tiles/tile_0044/tile_0044.edg.xml"/>
        <connection-files value="/home/sdai/harry/TeraSim/jupiter/wb/jupiter_wb_tiles/tile_0044/tile_0044.con.xml"/>
    </input>

    <output>
        <output-file value="/home/sdai/harry/TeraSim/jupiter/wb/jupiter_wb_tiles/tile_0044/tile_0044.net.xml"/>
        <output.street-names value="true"/>
        <output.original-names value="true"/>
    </output>

    <processing>
        <geometry.remove value="false"/>
        <geometry.min-dist value="0.5"/>
        <edges.join value="false"/>
    </processing>

    <junctions>
        <no-internal-links value="false"/>
        <no-turnarounds value="true"/>
        <junctions.join value="true"/>
        <junctions.join-dist value="10"/>
        <junctions.corner-detail value="5"/>
        <junctions.internal-link-detail value="5"/>
        <junctions.limit-turn-speed value="5.5"/>
        <rectangular-lane-cut value="true"/>
        <check-lane-foes.all value="true"/>
    </junctions>

</netconvertConfiguration>
-->

<net version="1.20" junctionCornerDetail="5" junctionLinkDetail="5" rectangularLaneCut="true" limitTurnSpeed="5.50" checkLaneFoesAll="1" xmlns:xsi="http://www.w3.org/2001/XMLSchema-instance" xsi:noNamespaceSchemaLocation="http://sumo.dlr.de/xsd/net_file.xsd">

    <location netOffset="-619733.24,-3278130.27" convBoundary="0.00,0.00,9185.90,2828.70" origBoundary="0.00,0.00,628919.14,3280958.97" projParameter="!"/>

    <edge id=":j_merge_end_34_0" function="internal">
        <lane id=":j_merge_end_34_0_0" index="0" speed="13.89" length="32.91" width="3.66" shape="5613.81,1814.06 5605.31,1810.11 5599.44,1805.58 5593.57,1801.04 5585.07,1797.09"/>
        <lane id=":j_merge_end_34_0_1" index="1" speed="13.89" length="32.91" width="3.66" shape="5614.94,1810.57 5583.94,1800.57"/>
        <lane id=":j_merge_end_34_0_2" index="2" speed="13.89" length="32.91" width="3.66" shape="5616.06,1807.09 5585.07,1797.09"/>
    </edge>
    <edge id=":j_merge_start_34_0" function="internal">
        <lane id=":j_merge_start_34_0_0" index="0" speed="13.89" length="62.09" width="3.66" shape="5764.22,1862.30 5705.05,1843.45"/>
    </edge>
    <edge id=":j_merge_start_34_1" function="internal">
        <lane id=":j_merge_start_34_1_0" index="0" speed="13.89" length="62.01" width="3.66" shape="5765.20,1858.98 5706.18,1839.96"/>
        <lane id=":j_merge_start_34_1_1" index="1" speed="13.89" length="62.01" width="3.66" shape="5766.32,1855.49 5707.30,1836.48"/>
    </edge>
    <edge id=":junction_98_0" function="internal">
        <lane id=":junction_98_0_0" index="0" speed="13.89" length="37.52" width="3.66" shape="6854.74,2213.81 6818.25,2205.07"/>
    </edge>
    <edge id=":junction_98_1" function="internal">
        <lane id=":junction_98_1_0" index="0" speed="13.89" length="37.48" width="3.66" shape="6855.86,2210.33 6820.18,2198.88"/>
        <lane id=":junction_98_1_1" index="1" speed="13.89" length="37.48" width="3.66" shape="6856.99,2206.84 6821.30,2195.39"/>
    </edge>
    <edge id=":node_420_end_0" function="internal">
        <lane id=":node_420_end_0_0" index="0" speed="13.89" length="7.77" width="3.66" shape="6916.54,2229.89 6909.05,2227.81"/>
    </edge>
    <edge id=":node_420_end_1" function="internal">
        <lane id=":node_420_end_1_0" index="0" speed="13.89" length="8.13" width="3.66" shape="6916.54,2229.89 6908.80,2227.40"/>
        <lane id=":node_420_end_1_1" index="1" speed="13.89" length="8.13" width="3.66" shape="6917.66,2226.40 6909.93,2223.91"/>
    </edge>
    <edge id=":node_432_end_0" function="internal">
        <lane id=":node_432_end_0_0" index="0" speed="13.89" length="3.00" width="3.66" shape="5880.17,1895.96 5877.31,1895.04"/>
        <lane id=":node_432_end_0_1" index="1" speed="13.89" length="3.00" width="3.66" shape="5881.29,1892.48 5878.43,1891.56"/>
    </edge>
    <edge id=":node_436_end_0" function="internal">
        <lane id=":node_436_end_0_0" index="0" speed="13.89" length="3.25" width="3.66" shape="6862.97,2212.63 6859.88,2211.63"/>
        <lane id=":node_436_end_0_1" index="1" speed="13.89" length="3.25" width="3.66" shape="6864.10,2209.15 6861.01,2208.14"/>
    </edge>
    <edge id=":node_436_end_2" function="internal">
        <lane id=":node_436_end_2_0" index="0" speed="13.89" length="3.13" width="3.66" shape="6861.80,2215.82 6858.75,2215.11"/>
    </edge>
    <edge id=":node_439_start_0" function="internal">
        <lane id=":node_439_start_0_0" index="0" speed="13.89" length="0.25" width="3.66" shape="5876.59,1901.80 5876.36,1901.71"/>
    </edge>

    <edge id="420.0" from="node_420_start" to="node_420_end" priority="-1" type="town" shape="9185.90,2824.56 9174.01,2825.40 9153.50,2826.57 9135.69,2827.40 9120.54,2827.94 9106.39,2828.34 9091.87,2828.55 9082.55,2828.64 9070.50,2828.70 9057.25,2828.69 9044.89,2828.62 9028.35,2828.34 9014.57,2827.99 9001.83,2827.58 8987.09,2827.01 8971.58,2826.24 8956.46,2825.37 8943.45,2824.50 8931.70,2823.64 8919.75,2822.71 8908.52,2821.76 8897.49,2820.77 8887.44,2819.76 8876.53,2818.54 8866.50,2817.34 8851.35,2815.45 8837.51,2813.67 8826.22,2812.16 8814.56,2810.45 8799.80,2808.23 8787.95,2806.36 8775.12,2804.24 8762.67,2802.08 8746.95,2799.25 8729.55,2795.90 8715.57,2793.12 8701.60,2790.22 8689.38,2787.60 8674.44,2784.14 8660.11,2780.71 8645.48,2777.23 8629.23,2773.19 8614.17,2769.28 8601.04,2765.73 8588.14,2762.11 8583.54,2760.82 8570.55,2756.91 8557.65,2752.86 8546.87,2749.43 8533.45,2745.23 8522.60,2741.78 8511.25,2738.19 8500.05,2734.61 8489.13,2731.11 8479.01,2727.84 8466.67,2723.91 8454.48,2720.00 8442.55,2716.18 8430.84,2712.42 8418.85,2708.62 8405.78,2704.46 8392.80,2700.28 8379.91,2696.14 8367.16,2692.03 8355.56,2688.30 8341.41,2683.71 8329.79,2679.96 8319.14,2676.49 8309.51,2673.38 8297.27,2669.44 8282.94,2664.80 8268.69,2660.17 8256.12,2656.13 8243.53,2652.07 8231.24,2648.10 8221.57,2645.01 8210.16,2641.32 8195.09,2636.44 8184.55,2633.00 8172.43,2629.09 8163.29,2626.14 8148.91,2621.50 8137.04,2617.67 8124.17,2613.55 8110.99,2609.25 8100.33,2605.79 8087.97,2601.83 8077.44,2598.45 8062.45,2593.56 8046.60,2588.48 8032.04,2583.79 8017.83,2579.18 8003.97,2574.76 7991.52,2570.71 7977.90,2566.34 7966.44,2562.65 7952.92,2558.34 7939.90,2554.13 7928.68,2550.51 7920.41,2547.85 7901.34,2541.71 7885.74,2536.64 7867.51,2530.75 7852.70,2526.01 7839.51,2521.78 7825.40,2517.24 7813.77,2513.47 7800.72,2509.23 7788.97,2505.49 7776.80,2501.54 7764.01,2497.40 7753.72,2494.00 7741.08,2489.92 7728.35,2485.84 7717.80,2482.45 7705.58,2478.48 7690.87,2473.65 7675.47,2468.72 7660.95,2464.02 7645.06,2458.91 7630.64,2454.33 7614.88,2449.22 7596.95,2443.44 7582.16,2438.66 7568.76,2434.35 7551.54,2428.75 7537.85,2424.37 7526.27,2420.63 7512.41,2416.18 7499.08,2411.90 7485.46,2407.53 7468.87,2402.16 7452.28,2396.77 7440.46,2392.99 7427.01,2388.67 7413.26,2384.24 7401.58,2380.51 7388.89,2376.42 7376.53,2372.45 7362.63,2367.98 7348.59,2363.43 7331.18,2357.82 7314.38,2352.42 7296.45,2346.66 7285.46,2343.14 7274.65,2339.64 7265.40,2336.66 7252.08,2332.36 7238.94,2328.11 7226.44,2324.06 7211.27,2319.18 7200.05,2315.57 7183.53,2310.24 7169.38,2305.67 7154.85,2301.02 7140.69,2296.46 7130.22,2293.09 7118.83,2289.42 7105.28,2285.05 7091.89,2280.74 7077.77,2276.19 7062.51,2271.24 7047.54,2266.36 7032.71,2261.58 7016.08,2256.20 7003.00,2252.00 6987.35,2246.95 6974.89,2242.95 6967.73,2240.63 6962.10,2238.80 6955.80,2236.77 6940.77,2231.96 6924.57,2226.71 6914.47,2223.45">
        <lane id="420.0_0" index="0" disallow="all" speed="13.89" length="2360.41" width="3.66" shape="9186.54,2833.69 9174.59,2834.53 9153.97,2835.71 9136.06,2836.54 9120.83,2837.08 9106.58,2837.49 9091.98,2837.70 9082.61,2837.79 9070.52,2837.85 9057.22,2837.84 9044.79,2837.77 9028.16,2837.49 9014.31,2837.13 9001.50,2836.72 8986.69,2836.15 8971.09,2835.38 8955.89,2834.50 8942.81,2833.63 8931.01,2832.76 8919.01,2831.83 8907.72,2830.87 8896.62,2829.88 8886.47,2828.86 8875.48,2827.63 8865.38,2826.42 8850.20,2824.53 8836.32,2822.74 8824.95,2821.22 8813.21,2819.50 8798.41,2817.27 8786.49,2815.39 8773.59,2813.26 8761.08,2811.09 8745.27,2808.24 8727.79,2804.88 8713.75,2802.09 8699.71,2799.17 8687.39,2796.53 8672.34,2793.04 8657.99,2789.61 8643.32,2786.12 8626.98,2782.06 8611.83,2778.12 8598.61,2774.55 8585.67,2770.92 8580.98,2769.60 8567.86,2765.65 8554.89,2761.58 8544.12,2758.15 8530.70,2753.96 8519.83,2750.50 8508.48,2746.91 8497.26,2743.32 8486.33,2739.82 8476.22,2736.55 8463.88,2732.62 8451.69,2728.71 8439.76,2724.89 8428.06,2721.14 8416.08,2717.34 8402.99,2713.17 8390.00,2708.99 8377.11,2704.85 8364.35,2700.74 8352.75,2697.01 8338.59,2692.41 8326.97,2688.66 8316.32,2685.19 8306.70,2682.09 8294.46,2678.15 8280.12,2673.50 8265.87,2668.87 8253.31,2664.84 8240.72,2660.78 8228.44,2656.81 8218.77,2653.72 8207.34,2650.02 8192.26,2645.14 8181.73,2641.70 8169.62,2637.80 8160.48,2634.85 8146.10,2630.21 8134.24,2626.38 8121.35,2622.25 8108.16,2617.95 8097.52,2614.50 8085.17,2610.54 8074.62,2607.15 8059.63,2602.26 8043.80,2597.19 8029.22,2592.49 8015.03,2587.89 8001.16,2583.47 7988.71,2579.42 7975.10,2575.05 7963.65,2571.36 7950.12,2567.05 7937.09,2562.84 7925.87,2559.22 7917.61,2556.56 7898.52,2550.41 7882.92,2545.34 7864.71,2539.46 7849.91,2534.72 7836.71,2530.49 7822.59,2525.95 7810.94,2522.17 7797.92,2517.94 7786.17,2514.20 7773.98,2510.24 7761.17,2506.10 7750.88,2502.70 7738.28,2498.63 7725.55,2494.55 7714.98,2491.15 7702.74,2487.18 7688.05,2482.35 7672.67,2477.43 7658.14,2472.73 7642.27,2467.62 7627.84,2463.04 7612.06,2457.92 7594.14,2452.15 7579.35,2447.37 7565.94,2443.05 7548.73,2437.46 7535.05,2433.08 7523.46,2429.34 7509.61,2424.89 7496.28,2420.61 7482.65,2416.24 7466.05,2410.86 7449.47,2405.48 7437.67,2401.70 7424.21,2397.38 7410.46,2392.95 7398.78,2389.22 7386.09,2385.13 7373.73,2381.16 7359.82,2376.69 7345.78,2372.14 7328.38,2366.53 7311.58,2361.13 7293.65,2355.37 7282.65,2351.85 7271.84,2348.35 7262.59,2345.37 7249.27,2341.07 7236.12,2336.81 7223.63,2332.77 7208.47,2327.89 7197.24,2324.28 7180.72,2318.95 7166.58,2314.38 7152.05,2309.73 7137.88,2305.17 7127.41,2301.80 7116.02,2298.13 7102.47,2293.76 7089.08,2289.45 7074.95,2284.89 7059.68,2279.94 7044.72,2275.06 7029.90,2270.29 7013.27,2264.91 7000.19,2260.71 6984.54,2255.66 6972.08,2251.66 6964.90,2249.33 6959.28,2247.50 6953.00,2245.48 6937.96,2240.67 6921.75,2235.41 6915.42,2233.37" type="shoulder"/>
        <lane id="420.0_1" index="1" speed="13.89" length="2360.41" width="3.66" shape="9186.29,2830.03 9174.36,2830.88 9153.78,2832.05 9135.91,2832.88 9120.71,2833.43 9106.51,2833.83 9091.94,2834.04 9082.59,2834.13 9070.51,2834.19 9057.23,2834.18 9044.83,2834.11 9028.23,2833.83 9014.41,2833.48 9001.63,2833.06 8986.85,2832.49 8971.29,2831.72 8956.12,2830.85 8943.07,2829.97 8931.29,2829.11 8919.31,2828.18 8908.04,2827.23 8896.97,2826.23 8886.86,2825.22 8875.90,2823.99 8865.83,2822.79 8850.66,2820.89 8836.80,2819.11 8825.46,2817.60 8813.75,2815.88 8798.96,2813.65 8787.07,2811.78 8774.20,2809.65 8761.71,2807.48 8745.94,2804.65 8728.50,2801.29 8714.48,2798.50 8700.47,2795.59 8688.18,2792.96 8673.18,2789.48 8658.83,2786.05 8644.18,2782.56 8627.88,2778.51 8612.76,2774.59 8599.58,2771.02 8586.66,2767.39 8582.01,2766.09 8568.94,2762.16 8556.00,2758.09 8545.22,2754.66 8531.80,2750.46 8520.94,2747.01 8509.59,2743.42 8498.38,2739.84 8487.45,2736.33 8477.33,2733.07 8465.00,2729.14 8452.80,2725.23 8440.87,2721.41 8429.17,2717.65 8417.19,2713.85 8404.10,2709.69 8391.12,2705.50 8378.23,2701.36 8365.48,2697.25 8353.87,2693.52 8339.72,2688.93 8328.10,2685.18 8317.44,2681.71 8307.82,2678.60 8295.58,2674.66 8281.25,2670.02 8267.00,2665.39 8254.44,2661.35 8241.84,2657.29 8229.56,2653.32 8219.89,2650.23 8208.47,2646.54 8193.39,2641.66 8182.86,2638.22 8170.74,2634.31 8161.60,2631.36 8147.22,2626.72 8135.36,2622.90 8122.48,2618.77 8109.29,2614.47 8098.64,2611.01 8086.29,2607.06 8075.75,2603.67 8060.76,2598.78 8044.92,2593.71 8030.35,2589.01 8016.15,2584.40 8002.29,2579.98 7989.83,2575.93 7976.22,2571.56 7964.76,2567.88 7951.24,2563.57 7938.21,2559.35 7927.00,2555.73 7918.73,2553.07 7899.65,2546.93 7884.05,2541.86 7865.83,2535.97 7851.02,2531.24 7837.83,2527.01 7823.71,2522.46 7812.07,2518.69 7799.04,2514.45 7787.29,2510.71 7775.11,2506.76 7762.30,2502.62 7752.02,2499.22 7739.40,2495.14 7726.67,2491.07 7716.11,2487.67 7703.87,2483.70 7689.18,2478.87 7673.79,2473.94 7659.26,2469.24 7643.39,2464.14 7628.96,2459.56 7613.19,2454.44 7595.26,2448.66 7580.47,2443.88 7567.07,2439.57 7549.85,2433.97 7536.17,2429.60 7524.59,2425.85 7510.73,2421.41 7497.40,2417.13 7483.77,2412.75 7467.18,2407.38 7450.59,2401.99 7438.78,2398.22 7425.33,2393.89 7411.58,2389.47 7399.90,2385.74 7387.21,2381.64 7374.85,2377.67 7360.94,2373.20 7346.90,2368.65 7329.50,2363.04 7312.70,2357.65 7294.77,2351.89 7283.78,2348.36 7272.96,2344.86 7263.71,2341.88 7250.39,2337.58 7237.25,2333.33 7224.75,2329.28 7209.59,2324.40 7198.36,2320.79 7181.84,2315.46 7167.70,2310.89 7153.17,2306.25 7139.01,2301.68 7128.54,2298.31 7117.14,2294.64 7103.60,2290.27 7090.21,2285.96 7076.08,2281.41 7060.81,2276.46 7045.85,2271.58 7031.02,2266.80 7014.39,2261.42 7001.32,2257.22 6985.67,2252.17 6973.21,2248.17 6966.03,2245.85 6960.41,2244.02 6954.12,2242.00 6939.09,2237.18 6922.88,2231.93 6916.54,2229.89"/>
        <lane id="420.0_2" index="2" speed="13.89" length="2360.41" width="3.66" shape="9186.03,2826.38 9174.13,2827.22 9153.59,2828.40 9135.76,2829.23 9120.60,2829.77 9106.43,2830.17 9091.89,2830.38 9082.56,2830.47 9070.50,2830.53 9057.24,2830.52 9044.87,2830.45 9028.31,2830.17 9014.52,2829.82 9001.76,2829.41 8987.01,2828.84 8971.48,2828.07 8956.35,2827.19 8943.32,2826.32 8931.56,2825.46 8919.60,2824.53 8908.36,2823.58 8897.32,2822.59 8887.25,2821.58 8876.32,2820.36 8866.28,2819.15 8851.12,2817.26 8837.27,2815.48 8825.96,2813.97 8814.29,2812.26 8799.52,2810.04 8787.66,2808.16 8774.81,2806.04 8762.35,2803.88 8746.61,2801.05 8729.20,2797.69 8715.20,2794.91 8701.22,2792.01 8688.98,2789.38 8674.02,2785.92 8659.68,2782.49 8645.05,2779.01 8628.78,2774.96 8613.70,2771.05 8600.55,2767.49 8587.64,2763.87 8583.03,2762.58 8570.01,2758.66 8557.10,2754.60 8546.32,2751.17 8532.90,2746.97 8522.05,2743.52 8510.69,2739.93 8499.49,2736.35 8488.57,2732.85 8478.45,2729.58 8466.11,2725.65 8453.92,2721.74 8441.99,2717.92 8430.28,2714.16 8418.29,2710.36 8405.22,2706.20 8392.24,2702.02 8379.35,2697.88 8366.60,2693.77 8355.00,2690.04 8340.85,2685.45 8329.22,2681.70 8318.57,2678.23 8308.95,2675.12 8296.71,2671.18 8282.37,2666.54 8268.13,2661.91 8255.56,2657.87 8242.97,2653.81 8230.68,2649.84 8221.01,2646.75 8209.60,2643.06 8194.52,2638.18 8183.98,2634.74 8171.87,2630.83 8162.73,2627.88 8148.35,2623.24 8136.48,2619.41 8123.61,2615.29 8110.42,2610.99 8099.77,2607.53 8087.41,2603.57 8076.87,2600.19 8061.89,2595.30 8046.04,2590.22 8031.48,2585.53 8017.27,2580.92 8003.41,2576.50 7990.96,2572.45 7977.34,2568.08 7965.88,2564.39 7952.36,2560.08 7939.34,2555.87 7928.12,2552.25 7919.85,2549.59 7900.78,2543.45 7885.17,2538.38 7866.95,2532.49 7852.14,2527.75 7838.95,2523.52 7824.84,2518.98 7813.20,2515.21 7800.16,2510.97 7788.41,2507.23 7776.23,2503.28 7763.44,2499.14 7753.15,2495.74 7740.52,2491.66 7727.79,2487.58 7717.24,2484.19 7705.01,2480.22 7690.30,2475.39 7674.91,2470.46 7660.39,2465.76 7644.50,2460.65 7630.08,2456.07 7614.32,2450.96 7596.39,2445.18 7581.60,2440.40 7568.20,2436.09 7550.98,2430.49 7537.29,2426.11 7525.71,2422.37 7511.85,2417.92 7498.52,2413.64 7484.90,2409.27 7468.30,2403.90 7451.72,2398.51 7439.90,2394.73 7426.45,2390.41 7412.70,2385.98 7401.02,2382.25 7388.33,2378.16 7375.97,2374.19 7362.07,2369.72 7348.03,2365.17 7330.62,2359.56 7313.82,2354.16 7295.89,2348.40 7284.90,2344.88 7274.09,2341.38 7264.84,2338.40 7251.52,2334.10 7238.38,2329.85 7225.88,2325.80 7210.71,2320.92 7199.49,2317.31 7182.97,2311.98 7168.82,2307.41 7154.29,2302.76 7140.13,2298.20 7129.66,2294.83 7118.27,2291.16 7104.72,2286.79 7091.33,2282.48 7077.21,2277.93 7061.94,2272.98 7046.97,2268.10 7032.15,2263.32 7015.52,2257.94 7002.44,2253.74 6986.79,2248.69 6974.33,2244.69 6967.16,2242.37 6961.54,2240.54 6955.24,2238.51 6940.21,2233.70 6924.01,2228.45 6917.66,2226.40"/>
    </edge>
    <edge id="432.0" from="junction_98" to="node_432_end" priority="-1" type="town" shape="6821.86,2193.65 6811.61,2190.36 6804.77,2188.17 6791.36,2183.86 6777.14,2179.27 6751.17,2170.86 6735.78,2165.90 6723.44,2161.89 6707.42,2156.73 6692.07,2151.81 6678.25,2147.35 6659.81,2141.39 6644.64,2136.49 6630.05,2131.79 6613.78,2126.56 6597.76,2121.41 6582.98,2116.58 6567.96,2111.75 6554.54,2107.46 6540.63,2102.99 6527.71,2098.84 6515.83,2095.02 6504.87,2091.49 6481.52,2084.00 6457.23,2076.17 6445.02,2072.24 6436.48,2069.46 6419.25,2063.96 6400.85,2058.01 6378.52,2050.78 6356.28,2043.58 6340.86,2038.60 6328.24,2034.51 6320.78,2032.08 6309.04,2028.31 6289.05,2021.86 6272.77,2016.61 6258.42,2011.98 6242.03,2006.71 6223.71,2000.82 6212.36,1997.17 6199.39,1992.98 6182.11,1987.43 6166.50,1982.40 6149.05,1976.76 6132.86,1971.58 6117.62,1966.71 6099.48,1960.86 6084.80,1956.14 6074.40,1952.80 6062.14,1948.83 6050.44,1945.06 6038.82,1941.32 6023.35,1936.33 6011.51,1932.54 5998.75,1928.41 5985.30,1924.08 5971.00,1919.45 5960.32,1915.99 5949.22,1912.43 5933.95,1907.50 5920.89,1903.31 5908.85,1899.40 5894.33,1894.75 5880.42,1890.28">
        <lane id="432.0_0" index="0" disallow="all" speed="13.89" length="987.62" width="3.66" shape="6819.06,2202.36 6808.82,2199.07 6801.97,2196.88 6788.55,2192.57 6774.32,2187.97 6748.35,2179.56 6732.96,2174.60 6720.62,2170.59 6704.62,2165.44 6689.27,2160.52 6675.44,2156.06 6657.00,2150.10 6641.83,2145.20 6627.25,2140.50 6610.98,2135.27 6594.94,2130.11 6580.16,2125.28 6565.16,2120.46 6551.75,2116.17 6537.83,2111.70 6524.91,2107.55 6513.03,2103.73 6502.07,2100.20 6478.72,2092.71 6454.42,2084.88 6442.20,2080.94 6433.67,2078.17 6416.45,2072.67 6398.03,2066.71 6375.70,2059.48 6353.46,2052.28 6338.04,2047.30 6325.41,2043.21 6317.97,2040.79 6306.23,2037.02 6286.24,2030.57 6269.96,2025.32 6255.61,2020.69 6239.23,2015.42 6220.91,2009.53 6209.55,2005.88 6196.58,2001.69 6179.31,1996.14 6163.69,1991.11 6146.25,1985.47 6130.07,1980.29 6114.82,1975.42 6096.67,1969.57 6082.00,1964.85 6071.59,1961.51 6059.33,1957.54 6047.63,1953.77 6036.01,1950.03 6020.55,1945.04 6008.70,1941.25 5995.94,1937.12 5982.49,1932.79 5968.18,1928.15 5957.51,1924.70 5946.41,1921.14 5931.15,1916.21 5918.08,1912.02 5906.04,1908.11 5891.53,1903.46 5879.05,1899.45" type="shoulder"/>
        <lane id="432.0_1" index="1" speed="13.89" length="987.62" width="3.66" shape="6820.18,2198.88 6809.93,2195.59 6803.09,2193.40 6789.68,2189.08 6775.45,2184.49 6749.48,2176.08 6734.09,2171.12 6721.75,2167.11 6705.74,2161.96 6690.39,2157.03 6676.56,2152.57 6658.12,2146.61 6642.95,2141.71 6628.37,2137.01 6612.10,2131.78 6596.07,2126.63 6581.29,2121.80 6566.28,2116.98 6552.86,2112.69 6538.95,2108.22 6526.03,2104.06 6514.15,2100.24 6503.19,2096.72 6479.84,2089.22 6455.55,2081.39 6443.33,2077.46 6434.79,2074.68 6417.57,2069.19 6399.16,2063.23 6376.83,2056.00 6354.59,2048.80 6339.17,2043.82 6326.54,2039.73 6319.09,2037.30 6307.36,2033.53 6287.36,2027.08 6271.08,2021.83 6256.74,2017.20 6240.35,2011.93 6222.03,2006.04 6210.67,2002.39 6197.71,1998.20 6180.43,1992.65 6164.81,1987.62 6147.37,1981.98 6131.19,1976.81 6115.94,1971.94 6097.80,1966.08 6083.12,1961.36 6072.71,1958.02 6060.45,1954.05 6048.76,1950.28 6037.13,1946.54 6021.67,1941.55 6009.83,1937.76 5997.06,1933.63 5983.61,1929.30 5969.31,1924.67 5958.63,1921.21 5947.54,1917.65 5932.27,1912.72 5919.20,1908.53 5907.16,1904.62 5892.65,1899.98 5880.17,1895.96"/>
        <lane id="432.0_2" index="2" speed="13.89" length="987.62" width="3.66" shape="6821.30,2195.39 6811.05,2192.10 6804.21,2189.91 6790.80,2185.60 6776.58,2181.01 6750.61,2172.60 6735.22,2167.64 6722.88,2163.63 6706.86,2158.47 6691.51,2153.55 6677.69,2149.09 6659.25,2143.13 6644.08,2138.23 6629.49,2133.53 6613.22,2128.30 6597.19,2123.15 6582.41,2118.32 6567.40,2113.49 6553.98,2109.20 6540.07,2104.73 6527.15,2100.58 6515.27,2096.76 6504.31,2093.23 6480.96,2085.74 6456.67,2077.91 6444.46,2073.98 6435.92,2071.20 6418.69,2065.70 6400.29,2059.75 6377.96,2052.52 6355.72,2045.32 6340.30,2040.34 6327.67,2036.25 6320.22,2033.82 6308.48,2030.05 6288.49,2023.60 6272.21,2018.35 6257.86,2013.72 6241.47,2008.45 6223.15,2002.56 6211.80,1998.91 6198.83,1994.72 6181.55,1989.17 6165.94,1984.14 6148.49,1978.50 6132.30,1973.32 6117.06,1968.45 6098.92,1962.60 6084.24,1957.88 6073.84,1954.54 6061.58,1950.57 6049.88,1946.80 6038.26,1943.06 6022.79,1938.07 6010.95,1934.28 5998.19,1930.15 5984.74,1925.82 5970.44,1921.19 5959.76,1917.73 5948.66,1914.17 5933.39,1909.24 5920.33,1905.05 5908.29,1901.14 5893.77,1896.49 5881.29,1892.48"/>
    </edge>
    <edge id="433.0" from="node_432_end" to="j_merge_start_34" priority="-1" type="town" shape="5880.42,1890.28 5878.96,1889.81 5869.72,1886.81 5863.84,1884.92 5853.02,1881.42 5843.67,1878.42 5833.52,1875.14 5818.32,1870.26 5804.97,1865.98 5792.08,1861.85 5776.97,1856.99 5766.88,1853.75">
        <lane id="433.0_0" index="0" speed="13.89" length="117.77" width="3.66" shape="5877.31,1895.04 5868.03,1892.03 5862.15,1890.14 5851.33,1886.64 5841.99,1883.64 5831.84,1880.36 5816.64,1875.49 5803.29,1871.21 5790.40,1867.08 5775.29,1862.21 5765.20,1858.98"/>
        <lane id="433.0_1" index="1" speed="13.89" length="117.77" width="3.66" shape="5878.43,1891.56 5869.16,1888.55 5863.28,1886.66 5852.46,1883.16 5843.11,1880.16 5832.96,1876.88 5817.76,1872.00 5804.41,1867.72 5791.52,1863.59 5776.41,1858.73 5766.32,1855.49"/>
    </edge>
    <edge id="434.0" from="j_merge_end_34" to="junction_97" priority="-1" type="town" shape="5585.63,1795.35 5574.37,1791.71 5558.61,1786.62 5544.65,1782.11 5534.53,1778.85 5522.82,1775.08 5510.33,1771.03 5495.80,1766.32 5480.36,1761.32 5461.24,1755.16 5446.21,1750.29 5434.30,1746.46 5419.04,1741.55 5402.89,1736.33 5381.86,1729.54 5369.61,1725.61 5357.67,1721.74 5343.71,1717.23 5334.39,1714.25 5322.06,1710.28 5309.75,1706.30 5296.49,1702.03 5282.23,1697.46 5269.15,1693.26 5256.72,1689.29 5247.89,1686.46 5239.28,1683.68 5227.07,1679.76 5215.13,1675.89 5202.54,1671.85 5192.44,1668.61 5183.52,1665.74 5170.00,1661.42 5161.56,1658.73 5150.21,1655.05 5134.37,1649.97 5123.68,1646.50 5113.88,1643.34 5097.62,1638.13 5083.96,1633.75 5068.46,1628.81 5055.54,1624.64 5047.78,1622.15 5033.82,1617.66 5015.45,1611.74 5004.66,1608.30 4991.24,1603.94 4982.78,1601.24 4968.22,1596.53 4950.95,1590.99 4933.72,1585.42 4920.83,1581.27 4906.56,1576.66 4883.38,1569.23 4849.03,1558.19 4826.85,1551.01 4813.20,1546.60 4797.22,1541.41 4783.63,1537.02 4762.82,1530.26 4748.07,1525.45 4730.93,1519.86 4705.35,1511.54 4685.05,1504.92 4666.38,1498.88 4651.23,1494.02 4638.11,1489.79 4620.28,1484.04 4607.81,1480.01 4598.52,1477.02 4585.47,1472.82 4573.77,1469.05 4554.67,1462.90 4542.08,1458.91 4534.58,1456.47 4523.19,1452.83 4515.85,1450.49 4501.24,1445.81 4486.03,1440.90 4472.98,1436.67 4463.60,1433.64 4453.35,1430.33 4444.26,1427.38 4430.21,1422.85 4416.64,1418.48 4405.73,1414.94 4396.60,1411.98 4385.65,1408.44 4372.88,1404.29 4359.95,1400.08 4344.96,1395.27 4331.22,1390.85 4317.72,1386.48 4302.86,1381.68 4288.35,1376.99 4274.91,1372.67 4261.55,1368.33 4249.67,1364.54 4233.64,1359.40 4220.27,1355.09 4201.84,1349.20 4176.38,1340.99 4150.25,1332.52 4132.92,1326.94 4113.05,1320.57 4097.77,1315.65 4082.63,1310.79 4064.40,1304.93 4048.01,1299.62 4026.32,1292.66 4003.34,1285.29 3978.98,1277.48 3965.26,1273.07 3949.09,1267.86 3933.16,1262.73 3916.74,1257.48 3902.46,1252.91 3886.00,1247.64 3875.30,1244.16 3861.59,1239.75 3844.07,1234.09 3831.03,1229.91 3816.67,1225.22 3804.42,1221.29 3789.03,1216.31 3775.05,1211.79 3765.71,1208.78 3754.81,1205.26 3746.97,1202.74 3736.56,1199.37 3728.46,1196.76 3716.55,1192.93 3702.21,1188.31 3689.75,1184.31 3679.93,1181.18 3668.06,1177.35 3658.63,1174.32 3652.40,1172.31 3640.19,1168.34 3628.23,1164.52 3615.16,1160.29 3600.77,1155.66 3587.82,1151.47 3574.30,1147.10 3561.42,1142.94 3551.65,1139.78 3540.04,1136.02 3527.42,1131.93 3515.30,1128.02 3500.65,1123.27 3485.33,1118.32 3475.83,1115.28 3461.01,1110.53 3447.18,1106.08 3434.00,1101.84 3422.10,1097.98 3406.83,1093.08 3392.35,1088.42 3380.99,1084.76 3369.04,1080.90 3356.15,1076.77 3344.01,1072.85 3329.04,1068.00 3317.03,1064.14 3307.79,1061.18 3296.88,1057.65 3270.96,1049.27 3248.70,1042.07 3236.32,1038.11 3217.49,1032.07 3203.95,1027.73 3186.90,1022.22 3176.44,1018.89 3158.74,1013.22 3143.23,1008.25 3129.96,1004.00 3115.30,999.29 3105.59,996.18 3094.61,992.69 3084.93,989.58 3073.66,985.97 3061.63,982.12 3051.87,979.01 3041.19,975.58 3029.37,971.78 3019.09,968.51 3009.71,965.45 2996.77,961.29 2984.45,957.30 2973.59,953.81 2958.99,949.12 2946.21,945.02 2936.46,941.88 2925.61,938.38 2919.20,936.29 2905.57,931.92 2893.09,927.93 2881.64,924.26 2870.40,920.62 2856.85,916.23 2845.51,912.58 2831.82,908.17 2816.00,903.02 2801.79,898.42 2790.03,894.65 2777.39,890.57 2766.38,887.03 2758.73,884.60 2749.46,881.62 2739.62,878.48 2731.56,875.87 2719.62,872.05 2709.36,868.74 2697.45,864.90 2685.43,861.05 2673.19,857.09 2661.11,853.21 2648.88,849.29 2633.24,844.29 2621.56,840.51 2608.55,836.31 2596.04,832.25 2581.48,827.57 2569.76,823.79 2557.53,819.86 2546.88,816.43 2534.17,812.34 2523.86,809.03 2514.50,806.00 2502.66,802.16 2490.78,798.31 2478.26,794.27 2466.04,790.30 2455.59,786.92 2443.62,783.05 2430.25,778.73 2417.54,774.63 2405.66,770.81 2392.46,766.57 2380.49,762.71 2369.41,759.12 2356.07,754.84 2344.48,751.10 2332.49,747.20 2318.40,742.67 2307.47,739.18 2292.49,734.33 2275.10,728.72 2263.14,724.87 2252.25,721.65 2236.39,716.29 2222.76,711.88 2209.94,707.74 2196.96,703.54 2185.88,700.00 2173.37,695.95 2157.94,690.96 2149.69,688.35 2136.37,684.08 2124.14,680.13 2112.67,676.44 2097.69,671.60 2088.81,668.76 2075.88,664.61 2064.06,660.76 2051.72,656.81 2038.34,652.46 2026.61,648.65 2013.39,644.41 2001.65,640.62 1988.01,636.27 1968.98,630.16 1953.72,625.24 1941.17,621.18 1930.71,617.80 1920.61,614.53 1911.92,611.71 1890.50,604.80 1878.40,600.91 1862.01,595.65 1845.15,590.20 1831.23,585.72 1819.15,581.85 1810.21,578.97 1800.75,575.91 1791.73,573.00 1782.92,570.17 1773.77,567.23 1764.09,564.14 1758.10,562.20 1749.16,559.30 1736.14,555.10 1725.58,551.70 1717.59,549.15 1709.24,546.48 1698.05,542.91 1687.64,539.54 1679.87,537.04 1672.75,534.80 1664.43,532.09 1655.09,529.08 1643.91,525.48 1636.63,523.13 1630.08,521.02 1621.52,518.27 1610.64,514.77 1597.74,510.60 1585.41,506.63 1575.18,503.34 1565.20,500.13 1557.08,497.56 1550.83,495.53 1539.65,491.92 1531.42,489.28 1518.98,485.29 1506.23,481.16 1494.82,477.46 1484.25,474.05 1473.79,470.66 1465.40,467.95 1453.49,464.11 1442.54,460.57 1429.61,456.40 1417.55,452.52 1405.59,448.66 1392.17,444.39 1378.91,440.13 1376.50,439.36 1354.95,432.37 1333.52,425.54 1316.47,420.02 1293.99,412.82 1272.78,405.94 1249.33,398.35 1233.09,393.11 1208.73,385.30 1194.60,380.80 1175.64,374.75 1158.91,369.41 1143.13,364.42 1126.90,359.32 1104.26,352.29 1087.54,347.15 1065.01,340.31 1041.32,333.32 1019.74,326.98 1001.60,321.65 987.69,317.60 970.00,312.47 947.92,306.04 925.83,299.66 902.56,292.88 880.89,286.59 862.48,281.25 849.04,277.35 833.40,272.79 816.25,267.82 795.27,261.62 778.56,256.80 764.59,252.72 752.25,249.17 735.06,244.16 718.65,239.36 695.90,232.79 677.92,227.63 665.56,224.02 651.89,220.06 639.72,216.45 623.91,211.61 613.01,208.20 594.03,202.14 580.60,197.83 556.93,190.06 537.07,183.32 518.04,176.80 500.47,170.81 482.41,164.59 458.31,156.26 433.42,147.63 411.80,140.13 392.73,133.60 374.15,127.13 357.57,121.39 336.42,113.99 315.42,106.76 298.39,100.86 278.59,94.01 259.98,87.55 242.17,81.44 226.12,75.85 205.42,68.72 186.54,62.24 170.09,56.49 150.42,49.62 130.93,42.89 108.78,35.19 86.06,27.36 65.17,20.22 49.08,14.60">