<?xml version='1.0' encoding='utf-8'?>
<edges>
    <edge id="420.0" from="node_420_start" to="node_420_end" numLanes="3" speed="13.89" type="town" shape="628919.14,3280954.83 628907.25,3280955.67 628907.25,3280955.67 628886.74,3280956.84 628886.74,3280956.84 628868.93,3280957.67 628868.93,3280957.67 628853.78,3280958.21 628853.78,3280958.21 628839.63,3280958.61 628839.63,3280958.61 628825.11,3280958.82 628825.11,3280958.82 628815.79,3280958.91 628815.79,3280958.91 628803.74,3280958.97 628803.74,3280958.97 628790.49,3280958.96 628790.49,3280958.96 628778.13,3280958.89 628778.13,3280958.89 628761.59,3280958.61 628761.59,3280958.61 628747.81,3280958.26 628747.81,3280958.26 628735.07,3280957.85 628735.07,3280957.85 628720.33,3280957.28 628720.33,3280957.28 628704.82,3280956.51 628704.82,3280956.51 628689.70,3280955.64 628689.70,3280955.64 628676.69,3280954.77 628676.69,3280954.77 628664.94,3280953.91 628664.94,3280953.91 628652.99,3280952.98 628652.99,3280952.98 628641.76,3280952.03 628641.76,3280952.03 628630.73,3280951.04 628630.73,3280951.04 628620.68,3280950.03 628620.68,3280950.03 628609.77,3280948.81 628609.77,3280948.81 628599.74,3280947.61 628599.74,3280947.61 628584.59,3280945.72 628584.59,3280945.72 628570.75,3280943.94 628570.75,3280943.94 628559.46,3280942.43 628559.46,3280942.43 628547.80,3280940.72 628547.80,3280940.72 628533.04,3280938.50 628533.04,3280938.50 628521.19,3280936.63 628521.19,3280936.63 628508.36,3280934.51 628508.36,3280934.51 628495.91,3280932.35 628495.91,3280932.35 628480.19,3280929.52 628480.19,3280929.52 628462.79,3280926.17 628462.79,3280926.17 628448.81,3280923.39 628448.81,3280923.39 628434.84,3280920.49 628434.84,3280920.49 628422.62,3280917.87 628422.62,3280917.87 628407.68,3280914.41 628407.68,3280914.41 628393.35,3280910.98 628393.35,3280910.98 628378.72,3280907.50 628378.72,3280907.50 628362.47,3280903.46 628362.47,3280903.46 628347.41,3280899.55 628347.41,3280899.55 628334.28,3280896.00 628334.28,3280896.00 628321.38,3280892.38 628321.38,3280892.38 628316.78,3280891.09 628316.78,3280891.09 628303.79,3280887.18 628303.79,3280887.18 628290.89,3280883.13 628290.89,3280883.13 628280.11,3280879.70 628280.11,3280879.70 628266.69,3280875.50 628266.69,3280875.50 628255.84,3280872.05 628255.84,3280872.05 628244.49,3280868.46 628244.49,3280868.46 628233.29,3280864.88 628233.29,3280864.88 628222.37,3280861.38 628222.37,3280861.38 628212.25,3280858.11 628212.25,3280858.11 628199.91,3280854.18 628199.91,3280854.18 628187.72,3280850.27 628187.72,3280850.27 628175.79,3280846.45 628175.79,3280846.45 628164.08,3280842.69 628164.08,3280842.69 628152.09,3280838.89 628152.09,3280838.89 628139.02,3280834.73 628139.02,3280834.73 628126.04,3280830.55 628126.04,3280830.55 628113.15,3280826.41 628113.15,3280826.41 628100.40,3280822.30 628100.40,3280822.30 628088.80,3280818.57 628088.80,3280818.57 628074.65,3280813.98 628074.65,3280813.98 628063.03,3280810.23 628063.03,3280810.23 628052.38,3280806.76 628052.38,3280806.76 628042.75,3280803.65 628042.75,3280803.65 628030.51,3280799.71 628030.51,3280799.71 628016.18,3280795.07 628016.18,3280795.07 628001.93,3280790.44 628001.93,3280790.44 627989.36,3280786.40 627989.36,3280786.40 627976.77,3280782.34 627976.77,3280782.34 627964.48,3280778.37 627964.48,3280778.37 627954.81,3280775.28 627954.81,3280775.28 627943.40,3280771.59 627943.40,3280771.59 627928.33,3280766.71 627928.33,3280766.71 627917.79,3280763.27 627917.79,3280763.27 627905.67,3280759.36 627905.67,3280759.36 627896.53,3280756.41 627896.53,3280756.41 627882.15,3280751.77 627882.15,3280751.77 627870.28,3280747.94 627870.28,3280747.94 627857.41,3280743.82 627857.41,3280743.82 627844.23,3280739.52 627844.23,3280739.52 627833.57,3280736.06 627833.57,3280736.06 627821.21,3280732.10 627821.21,3280732.10 627810.68,3280728.72 627810.68,3280728.72 627795.69,3280723.83 627795.69,3280723.83 627779.84,3280718.75 627779.84,3280718.75 627765.28,3280714.06 627765.28,3280714.06 627751.07,3280709.45 627751.07,3280709.45 627737.21,3280705.03 627737.21,3280705.03 627724.76,3280700.98 627724.76,3280700.98 627711.14,3280696.61 627711.14,3280696.61 627699.68,3280692.92 627699.68,3280692.92 627686.16,3280688.61 627686.16,3280688.61 627673.14,3280684.40 627673.14,3280684.40 627661.92,3280680.78 627661.92,3280680.78 627653.65,3280678.12 627653.65,3280678.12 627634.58,3280671.98 627634.58,3280671.98 627618.98,3280666.91 627618.98,3280666.91 627600.75,3280661.02 627600.75,3280661.02 627585.94,3280656.28 627585.94,3280656.28 627572.75,3280652.05 627572.75,3280652.05 627558.64,3280647.51 627558.64,3280647.51 627547.01,3280643.74 627547.01,3280643.74 627533.96,3280639.50 627533.96,3280639.50 627522.21,3280635.76 627522.21,3280635.76 627510.04,3280631.81 627510.04,3280631.81 627497.25,3280627.67 627497.25,3280627.67 627486.96,3280624.27 627486.96,3280624.27 627474.32,3280620.19 627474.32,3280620.19 627461.59,3280616.11 627461.59,3280616.11 627451.04,3280612.72 627451.04,3280612.72 627438.82,3280608.75 627438.82,3280608.75 627424.11,3280603.92 627424.11,3280603.92 627408.71,3280598.99 627408.71,3280598.99 627394.19,3280594.29 627394.19,3280594.29 627378.30,3280589.18 627378.30,3280589.18 627363.88,3280584.60 627363.88,3280584.60 627348.12,3280579.49 627348.12,3280579.49 627330.19,3280573.71 627330.19,3280573.71 627315.40,3280568.93 627315.40,3280568.93 627302.00,3280564.62 627302.00,3280564.62 627284.78,3280559.02 627284.78,3280559.02 627271.09,3280554.64 627271.09,3280554.64 627259.51,3280550.90 627259.51,3280550.90 627245.65,3280546.45 627245.65,3280546.45 627232.32,3280542.17 627232.32,3280542.17 627218.70,3280537.80 627218.70,3280537.80 627202.11,3280532.43 627202.11,3280532.43 627185.52,3280527.04 627185.52,3280527.04 627173.70,3280523.26 627173.70,3280523.26 627160.25,3280518.94 627160.25,3280518.94 627146.50,3280514.51 627146.50,3280514.51 627134.82,3280510.78 627134.82,3280510.78 627122.13,3280506.69 627122.13,3280506.69 627109.77,3280502.72 627109.77,3280502.72 627095.87,3280498.25 627095.87,3280498.25 627081.83,3280493.70 627081.83,3280493.70 627064.42,3280488.09 627064.42,3280488.09 627047.62,3280482.69 627047.62,3280482.69 627029.69,3280476.93 627029.69,3280476.93 627018.70,3280473.41 627018.70,3280473.41 627007.89,3280469.91 627007.89,3280469.91 626998.64,3280466.93 626998.64,3280466.93 626985.32,3280462.63 626985.32,3280462.63 626972.18,3280458.38 626972.18,3280458.38 626959.68,3280454.33 626959.68,3280454.33 626944.51,3280449.45 626944.51,3280449.45 626933.29,3280445.84 626933.29,3280445.84 626916.77,3280440.51 626916.77,3280440.51 626902.62,3280435.94 626902.62,3280435.94 626888.09,3280431.29 626888.09,3280431.29 626873.93,3280426.73 626873.93,3280426.73 626863.46,3280423.36 626863.46,3280423.36 626852.07,3280419.69 626852.07,3280419.69 626838.52,3280415.32 626838.52,3280415.32 626825.13,3280411.01 626825.13,3280411.01 626811.01,3280406.46 626811.01,3280406.46 626795.75,3280401.51 626795.75,3280401.51 626780.78,3280396.63 626780.78,3280396.63 626765.95,3280391.85 626765.95,3280391.85 626749.32,3280386.47 626749.32,3280386.47 626736.24,3280382.27 626736.24,3280382.27 626720.59,3280377.22 626720.59,3280377.22 626708.13,3280373.22 626708.13,3280373.22 626700.97,3280370.90 626700.97,3280370.90 626695.34,3280369.07 626695.34,3280369.07 626689.04,3280367.04 626689.04,3280367.04 626674.01,3280362.23 626674.01,3280362.23 626657.81,3280356.98 626657.81,3280356.98 626647.71,3280353.72">
        <lane index="0" width="3.66" type="shoulder" disallow="all" />
        <lane index="1" width="3.66" />
        <lane index="2" width="3.66" />
    </edge>
    <edge id="432.0" from="junction_98" to="node_432_end" numLanes="3" speed="13.89" type="town" shape="626555.10,3280323.92 626544.85,3280320.63 626544.85,3280320.63 626538.01,3280318.44 626538.01,3280318.44 626524.60,3280314.13 626524.60,3280314.13 626510.38,3280309.54 626510.38,3280309.54 626484.41,3280301.13 626484.41,3280301.13 626469.02,3280296.17 626469.02,3280296.17 626456.68,3280292.16 626456.68,3280292.16 626440.66,3280287.00 626440.66,3280287.00 626425.31,3280282.08 626425.31,3280282.08 626411.49,3280277.62 626411.49,3280277.62 626393.05,3280271.66 626393.05,3280271.66 626377.88,3280266.76 626377.88,3280266.76 626363.29,3280262.06 626363.29,3280262.06 626347.02,3280256.83 626347.02,3280256.83 626331.00,3280251.68 626331.00,3280251.68 626316.22,3280246.85 626316.22,3280246.85 626301.20,3280242.02 626301.20,3280242.02 626287.78,3280237.73 626287.78,3280237.73 626273.87,3280233.26 626273.87,3280233.26 626260.95,3280229.11 626260.95,3280229.11 626249.07,3280225.29 626249.07,3280225.29 626238.11,3280221.76 626238.11,3280221.76 626214.76,3280214.27 626214.76,3280214.27 626190.47,3280206.44 626190.47,3280206.44 626178.26,3280202.51 626178.26,3280202.51 626169.72,3280199.73 626169.72,3280199.73 626152.49,3280194.23 626152.49,3280194.23 626134.09,3280188.28 626134.09,3280188.28 626111.76,3280181.05 626111.76,3280181.05 626089.52,3280173.85 626089.52,3280173.85 626074.10,3280168.87 626074.10,3280168.87 626061.48,3280164.78 626061.48,3280164.78 626054.02,3280162.35 626054.02,3280162.35 626042.28,3280158.58 626042.28,3280158.58 626022.29,3280152.13 626022.29,3280152.13 626006.01,3280146.88 626006.01,3280146.88 625991.66,3280142.25 625991.66,3280142.25 625975.27,3280136.98 625975.27,3280136.98 625956.95,3280131.09 625956.95,3280131.09 625945.60,3280127.44 625945.60,3280127.44 625932.63,3280123.25 625932.63,3280123.25 625915.35,3280117.70 625915.35,3280117.70 625899.74,3280112.67 625899.74,3280112.67 625882.29,3280107.03 625882.29,3280107.03 625866.10,3280101.85 625866.10,3280101.85 625850.86,3280096.98 625850.86,3280096.98 625832.72,3280091.13 625832.72,3280091.13 625818.04,3280086.41 625818.04,3280086.41 625807.64,3280083.07 625807.64,3280083.07 625795.38,3280079.10 625795.38,3280079.10 625783.68,3280075.33 625783.68,3280075.33 625772.06,3280071.59 625772.06,3280071.59 625756.59,3280066.60 625756.59,3280066.60 625744.75,3280062.81 625744.75,3280062.81 625731.99,3280058.68 625731.99,3280058.68 625718.54,3280054.35 625718.54,3280054.35 625704.24,3280049.72 625704.24,3280049.72 625693.56,3280046.26 625693.56,3280046.26 625682.46,3280042.70 625682.46,3280042.70 625667.19,3280037.77 625667.19,3280037.77 625654.13,3280033.58 625654.13,3280033.58 625642.09,3280029.67 625642.09,3280029.67 625627.57,3280025.02 625627.57,3280025.02 625613.66,3280020.55">
        <lane index="0" width="3.66" type="shoulder" disallow="all" />
        <lane index="1" width="3.66" />
        <lane index="2" width="3.66" />
    </edge>
    <edge id="433.0" from="node_432_end" to="j_merge_start_34" numLanes="2" speed="13.89" type="town" shape="625613.66,3280020.55 625612.20,3280020.08 625612.20,3280020.08 625602.96,3280017.08 625602.96,3280017.08 625597.08,3280015.19 625597.08,3280015.19 625586.26,3280011.69 625586.26,3280011.69 625576.91,3280008.69 625576.91,3280008.69 625566.76,3280005.41 625566.76,3280005.41 625551.56,3280000.53 625551.56,3280000.53 625538.21,3279996.25 625538.21,3279996.25 625525.32,3279992.12 625525.32,3279992.12 625510.21,3279987.26 625510.21,3279987.26 625500.12,3279984.02">
        <lane index="0" width="3.66" />
        <lane index="1" width="3.66" />
    </edge>
    <edge id="434.0" from="j_merge_end_34" to="junction_97" numLanes="3" speed="13.89" type="town" shape="625318.87,3279925.62 625307.61,3279921.98 625307.61,3279921.98 625291.85,3279916.89 625291.85,3279916.89 625277.89,3279912.38 625277.89,3279912.38 625267.77,3279909.12 625267.77,3279909.12 625256.06,3279905.35 625256.06,3279905.35 625243.57,3279901.30 625243.57,3279901.30 625229.04,3279896.59 625229.04,3279896.59 625213.60,3279891.59 625213.60,3279891.59 625194.48,3279885.43 625194.48,3279885.43 625179.45,3279880.56 625179.45,3279880.56 625167.54,3279876.73 625167.54,3279876.73 625152.28,3279871.82 625152.28,3279871.82 625136.13,3279866.60 625136.13,3279866.60 625115.10,3279859.81 625115.10,3279859.81 625102.85,3279855.88 625102.85,3279855.88 625090.91,3279852.01 625090.91,3279852.01 625076.95,3279847.50 625076.95,3279847.50 625067.63,3279844.52 625067.63,3279844.52 625055.30,3279840.55 625055.30,3279840.55 625042.99,3279836.57 625042.99,3279836.57 625029.73,3279832.30 625029.73,3279832.30 625015.47,3279827.73 625015.47,3279827.73 625002.39,3279823.53 625002.39,3279823.53 624989.96,3279819.56 624989.96,3279819.56 624981.13,3279816.73 624981.13,3279816.73 624972.52,3279813.95 624972.52,3279813.95 624960.31,3279810.03 624960.31,3279810.03 624948.37,3279806.16 624948.37,3279806.16 624935.78,3279802.12 624935.78,3279802.12 624925.68,3279798.88 624925.68,3279798.88 624916.76,3279796.01 624916.76,3279796.01 624903.24,3279791.69 624903.24,3279791.69 624894.80,3279789.00 624894.80,3279789.00 624883.45,3279785.32 624883.45,3279785.32 624867.61,3279780.24 624867.61,3279780.24 624856.92,3279776.77 624856.92,3279776.77 624847.12,3279773.61 624847.12,3279773.61 624830.86,3279768.40 624830.86,3279768.40 624817.20,3279764.02 624817.20,3279764.02 624801.70,3279759.08 624801.70,3279759.08 624788.78,3279754.91 624788.78,3279754.91 624781.02,3279752.42 624781.02,3279752.42 624767.06,3279747.93 624767.06,3279747.93 624748.69,3279742.01 624748.69,3279742.01 624737.90,3279738.57 624737.90,3279738.57 624724.48,3279734.21 624724.48,3279734.21 624716.02,3279731.51 624716.02,3279731.51 624701.46,3279726.80 624701.46,3279726.80 624684.19,3279721.26 624684.19,3279721.26 624666.96,3279715.69 624666.96,3279715.69 624654.07,3279711.54 624654.07,3279711.54 624639.80,3279706.93 624639.80,3279706.93 624616.62,3279699.50 624616.62,3279699.50 624582.27,3279688.46 624582.27,3279688.46 624560.09,3279681.28 624560.09,3279681.28 624546.44,3279676.87 624546.44,3279676.87 624530.46,3279671.68 624530.46,3279671.68 624516.87,3279667.29 624516.87,3279667.29 624496.06,3279660.53 624496.06,3279660.53 624481.31,3279655.72 624481.31,3279655.72 624464.17,3279650.13 624464.17,3279650.13 624438.59,3279641.81 624438.59,3279641.81 624418.29,3279635.19 624418.29,3279635.19 624399.62,3279629.15 624399.62,3279629.15 624384.47,3279624.29 624384.47,3279624.29 624371.35,3279620.06 624371.35,3279620.06 624353.52,3279614.31 624353.52,3279614.31 624341.05,3279610.28 624341.05,3279610.28 624331.76,3279607.29 624331.76,3279607.29 624318.71,3279603.09 624318.71,3279603.09 624307.01,3279599.32 624307.01,3279599.32 624287.91,3279593.17 624287.91,3279593.17 624275.32,3279589.18 624275.32,3279589.18 624267.82,3279586.74 624267.82,3279586.74 624256.43,3279583.10 624256.43,3279583.10 624249.09,3279580.76 624249.09,3279580.76 624234.48,3279576.08 624234.48,3279576.08 624219.27,3279571.17 624219.27,3279571.17 624206.22,3279566.94 624206.22,3279566.94 624196.84,3279563.91 624196.84,3279563.91 624186.59,3279560.60 624186.59,3279560.60 624177.50,3279557.65 624177.50,3279557.65 624163.45,3279553.12 624163.45,3279553.12 624149.88,3279548.75 624149.88,3279548.75 624138.97,3279545.21 624138.97,3279545.21 624129.84,3279542.25 624129.84,3279542.25 624118.89,3279538.71 624118.89,3279538.71 624106.12,3279534.56 624106.12,3279534.56 624093.19,3279530.35 624093.19,3279530.35 624078.20,3279525.54 624078.20,3279525.54 624064.46,3279521.12 624064.46,3279521.12 624050.96,3279516.75 624050.96,3279516.75 624036.10,3279511.95 624036.10,3279511.95 624021.59,3279507.26 624021.59,3279507.26 624008.15,3279502.94 624008.15,3279502.94 623994.79,3279498.60 623994.79,3279498.60 623982.91,3279494.81 623982.91,3279494.81 623966.88,3279489.67 623966.88,3279489.67 623953.51,3279485.36 623953.51,3279485.36 623935.08,3279479.47 623935.08,3279479.47 623909.62,3279471.26 623909.62,3279471.26 623883.49,3279462.79 623883.49,3279462.79 623866.16,3279457.21 623866.16,3279457.21 623846.29,3279450.84 623846.29,3279450.84 623831.01,3279445.92 623831.01,3279445.92 623815.87,3279441.06 623815.87,3279441.06 623797.64,3279435.20 623797.64,3279435.20 623781.25,3279429.89 623781.25,3279429.89 623759.56,3279422.93 623759.56,3279422.93 623736.58,3279415.56 623736.58,3279415.56 623712.22,3279407.75 623712.22,3279407.75 623698.50,3279403.34 623698.50,3279403.34 623682.33,3279398.13 623682.33,3279398.13 623666.40,3279393.00 623666.40,3279393.00 623649.98,3279387.75 623649.98,3279387.75 623635.70,3279383.18 623635.70,3279383.18 623619.24,3279377.91 623619.24,3279377.91 623608.54,3279374.43 623608.54,3279374.43 623594.83,3279370.02 623594.83,3279370.02 623577.31,3279364.36 623577.31,3279364.36 623564.27,3279360.18 623564.27,3279360.18 623549.91,3279355.49 623549.91,3279355.49 623537.66,3279351.56 623537.66,3279351.56 623522.27,3279346.58 623522.27,3279346.58 623508.29,3279342.06 623508.29,3279342.06 623498.95,3279339.05 623498.95,3279339.05 623488.05,3279335.53 623488.05,3279335.53 623480.21,3279333.01 623480.21,3279333.01 623469.80,3279329.64 623469.80,3279329.64 623461.70,3279327.03 623461.70,3279327.03 623449.79,3279323.20 623449.79,3279323.20 623435.45,3279318.58 623435.45,3279318.58 623422.99,3279314.58 623422.99,3279314.58 623413.17,3279311.45 623413.17,3279311.45 623401.30,3279307.62 623401.30,3279307.62 623391.87,3279304.59 623391.87,3279304.59 623385.64,3279302.58 623385.64,3279302.58 623373.43,3279298.61 623373.43,3279298.61 623361.47,3279294.79 623361.47,3279294.79 623348.40,3279290.56 623348.40,3279290.56 623334.01,3279285.93 623334.01,3279285.93 623321.06,3279281.74 623321.06,3279281.74 623307.54,3279277.37 623307.54,3279277.37 623294.66,3279273.21 623294.66,3279273.21 623284.89,3279270.05 623284.89,3279270.05 623273.28,3279266.29 623273.28,3279266.29 623260.66,3279262.20 623260.66,3279262.20 623248.54,3279258.29 623248.54,3279258.29 623233.89,3279253.54 623233.89,3279253.54 623218.57,3279248.59 623218.57,3279248.59 623209.07,3279245.55 623209.07,3279245.55 623194.25,3279240.80 623194.25,3279240.80 623180.42,3279236.35 623180.42,3279236.35 623167.24,3279232.11 623167.24,3279232.11 623155.34,3279228.25 623155.34,3279228.25 623140.07,3279223.35 623140.07,3279223.35 623125.59,3279218.69 623125.59,3279218.69 623114.23,3279215.03 623114.23,3279215.03 623102.28,3279211.17 623102.28,3279211.17 623089.39,3279207.04 623089.39,3279207.04 623077.25,3279203.12 623077.25,3279203.12 623062.28,3279198.27 623062.28,3279198.27 623050.27,3279194.41 623050.27,3279194.41 623041.03,3279191.45 623041.03,3279191.45 623030.12,3279187.92 623030.12,3279187.92 623004.20,3279179.54 623004.20,3279179.54 622981.94,3279172.34 622981.94,3279172.34 622969.56,3279168.38 622969.56,3279168.38 622950.73,3279162.34 622950.73,3279162.34 622937.19,3279158.00 622937.19,3279158.00 622920.14,3279152.49 622920.14,3279152.49 622909.68,3279149.16 622909.68,3279149.16 622891.98,3279143.49 622891.98,3279143.49 622876.47,3279138.52 622876.47,3279138.52 622863.20,3279134.27 622863.20,3279134.27 622848.54,3279129.56 622848.54,3279129.56 622838.83,3279126.45 622838.83,3279126.45 622827.85,3279122.96 622827.85,3279122.96 622818.17,3279119.85 622818.17,3279119.85 622806.90,3279116.24 622806.90,3279116.24 622794.87,3279112.39 622794.87,3279112.39 622785.11,3279109.28 622785.11,3279109.28 622774.43,3279105.85 622774.43,3279105.85 622762.61,3279102.05 622762.61,3279102.05 622752.33,3279098.78 622752.33,3279098.78 622742.95,3279095.72 622742.95,3279095.72 622730.01,3279091.56 622730.01,3279091.56 622717.69,3279087.57 622717.69,3279087.57 622706.83,3279084.08 622706.83,3279084.08 622692.23,3279079.39 622692.23,3279079.39 622679.45,3279075.29 622679.45,3279075.29 622669.70,3279072.15 622669.70,3279072.15 622658.85,3279068.65 622658.85,3279068.65 622652.44,3279066.56 622652.44,3279066.56 622638.81,3279062.19 622638.81,3279062.19 622626.33,3279058.20 622626.33,3279058.20 622614.88,3279054.53 622614.88,3279054.53 622603.64,3279050.89 622603.64,3279050.89 622590.09,3279046.50 622590.09,3279046.50 622578.75,3279042.85 622578.75,3279042.85 622565.06,3279038.44 622565.06,3279038.44 622549.24,3279033.29 622549.24,3279033.29 622535.03,3279028.69 622535.03,3279028.69 622523.27,3279024.92 622523.27,3279024.92 622510.63,3279020.84 622510.63,3279020.84 622499.62,3279017.30 622499.62,3279017.30 622491.97,3279014.87 622491.97,3279014.87 622482.70,3279011.89 622482.70,3279011.89 622472.86,3279008.75 622472.86,3279008.75 622464.80,3279006.14 622464.80,3279006.14 622452.86,3279002.32 622452.86,3279002.32 622442.60,3278999.01 622442.60,3278999.01 622430.69,3278995.17 622430.69,3278995.17 622418.67,3278991.32 622418.67,3278991.32 622406.43,3278987.36 622406.43,3278987.36 622394.35,3278983.48 622394.35,3278983.48 622382.12,3278979.56 622382.12,3278979.56 622366.48,3278974.56 622366.48,3278974.56 622354.80,3278970.78 622354.80,3278970.78 622341.79,3278966.58 622341.79,3278966.58 622329.28,3278962.52 622329.28,3278962.52 622314.72,3278957.84 622314.72,3278957.84 622303.00,3278954.06 622303.00,3278954.06 622290.77,3278950.13 622290.77,3278950.13 622280.12,3278946.70 622280.12,3278946.70 622267.41,3278942.61 622267.41,3278942.61 622257.10,3278939.30 622257.10,3278939.30 622247.74,3278936.27 622247.74,3278936.27 622235.90,3278932.43 622235.90,3278932.43 622224.02,3278928.58 622224.02,3278928.58 622211.50,3278924.54 622211.50,3278924.54 622199.28,3278920.57 622199.28,3278920.57 622188.83,3278917.19 622188.83,3278917.19 622176.86,3278913.32 622176.86,3278913.32 622163.49,3278909.00 622163.49,3278909.00 622150.78,3278904.90 622150.78,3278904.90 622138.90,3278901.08 622138.90,3278901.08 622125.70,3278896.84 622125.70,3278896.84 622113.73,3278892.98 622113.73,3278892.98 622102.65,3278889.39 622102.65,3278889.39 622089.31,3278885.11 622089.31,3278885.11 622077.72,3278881.37 622077.72,3278881.37 622065.73,3278877.47 622065.73,3278877.47 622051.64,3278872.94 622051.64,3278872.94 622040.71,3278869.45 622040.71,3278869.45 622025.73,3278864.60 622025.73,3278864.60 622008.34,3278858.99 622008.34,3278858.99 621996.38,3278855.14 621996.38,3278855.14 621985.49,3278851.92 621985.49,3278851.92 621969.63,3278846.56 621969.63,3278846.56 621956.00,3278842.15 621956.00,3278842.15 621943.18,3278838.01 621943.18,3278838.01 621930.20,3278833.81 621930.20,3278833.81 621919.12,3278830.27 621919.12,3278830.27 621906.61,3278826.22 621906.61,3278826.22 621891.18,3278821.23 621891.18,3278821.23 621882.93,3278818.62 621882.93,3278818.62 621869.61,3278814.35 621869.61,3278814.35 621857.38,3278810.40 621857.38,3278810.40 621845.91,3278806.71 621845.91,3278806.71 621830.93,3278801.87 621830.93,3278801.87 621822.05,3278799.03 621822.05,3278799.03 621809.12,3278794.88 621809.12,3278794.88 621797.30,3278791.03 621797.30,3278791.03 621784.96,3278787.08 621784.96,3278787.08 621771.58,3278782.73 621771.58,3278782.73 621759.85,3278778.92 621759.85,3278778.92 621746.63,3278774.68 621746.63,3278774.68 621734.89,3278770.89 621734.89,3278770.89 621721.25,3278766.54 621721.25,3278766.54 621702.22,3278760.43 621702.22,3278760.43 621686.96,3278755.51 621686.96,3278755.51 621674.41,3278751.45 621674.41,3278751.45 621663.95,3278748.07 621663.95,3278748.07 621653.85,3278744.80 621653.85,3278744.80 621645.16,3278741.98 621645.16,3278741.98 621623.74,3278735.07 621623.74,3278735.07 621611.64,3278731.18 621611.64,3278731.18 621595.25,3278725.92 621595.25,3278725.92 621578.39,3278720.47 621578.39,3278720.47 621564.47,3278715.99 621564.47,3278715.99 621552.39,3278712.12 621552.39,3278712.12 621543.45,3278709.24 621543.45,3278709.24 621533.99,3278706.18 621533.99,3278706.18 621524.97,3278703.27 621524.97,3278703.27 621516.16,3278700.44 621516.16,3278700.44 621507.01,3278697.50 621507.01,3278697.50 621497.33,3278694.41 621497.33,3278694.41 621491.34,3278692.47 621491.34,3278692.47 621482.40,3278689.57 621482.40,3278689.57 621469.38,3278685.37 621469.38,3278685.37 621458.82,3278681.97 621458.82,3278681.97 621450.83,3278679.42 621450.83,3278679.42 621442.48,3278676.75 621442.48,3278676.75 621431.29,3278673.18 621431.29,3278673.18 621420.88,3278669.81 621420.88,3278669.81 621413.11,3278667.31 621413.11,3278667.31 621405.99,3278665.07 621405.99,3278665.07 621397.67,3278662.36 621397.67,3278662.36 621388.33,3278659.35 621388.33,3278659.35 621377.15,3278655.75 621377.15,3278655.75 621369.87,3278653.40 621369.87,3278653.40 621363.32,3278651.29 621363.32,3278651.29 621354.76,3278648.54 621354.76,3278648.54 621343.88,3278645.04 621343.88,3278645.04 621330.98,3278640.87 621330.98,3278640.87 621318.65,3278636.90 621318.65,3278636.90 621308.42,3278633.61 621308.42,3278633.61 621298.44,3278630.40 621298.44,3278630.40 621290.32,3278627.83 621290.32,3278627.83 621284.07,3278625.80 621284.07,3278625.80 621272.89,3278622.19 621272.89,3278622.19 621264.66,3278619.55 621264.66,3278619.55 621252.22,3278615.56 621252.22,3278615.56 621239.47,3278611.43 621239.47,3278611.43 621228.06,3278607.73 621228.06,3278607.73 621217.49,3278604.32 621217.49,3278604.32 621207.03,3278600.93 621207.03,3278600.93 621198.64,3278598.22 621198.64,3278598.22 621186.73,3278594.38 621186.73,3278594.38 621175.78,3278590.84 621175.78,3278590.84 621162.85,3278586.67 621162.85,3278586.67 621150.79,3278582.79 621150.79,3278582.79 621138.83,3278578.93 621138.83,3278578.93 621125.41,3278574.66 621125.41,3278574.66 621112.15,3278570.40 621112.15,3278570.40 621109.74,3278569.63 621109.74,3278569.63 621088.19,3278562.64 621088.19,3278562.64 621066.76,3278555.81 621066.76,3278555.81 621049.71,3278550.29 621049.71,3278550.29 621027.23,3278543.09 621027.23,3278543.09 621006.02,3278536.21 621006.02,3278536.21 620982.57,3278528.62 620982.57,3278528.62 620966.33,3278523.38 620966.33,3278523.38 620941.97,3278515.57 620941.97,3278515.57 620927.84,3278511.07 620927.84,3278511.07 620908.88,3278505.02 620908.88,3278505.02 620892.15,3278499.68 620892.15,3278499.68 620876.37,3278494.69 620876.37,3278494.69 620860.14,3278489.59 620860.14,3278489.59 620837.50,3278482.56 620837.50,3278482.56 620820.78,3278477.42 620820.78,3278477.42 620798.25,3278470.58 620798.25,3278470.58 620774.56,3278463.59 620774.56,3278463.59 620752.98,3278457.25 620752.98,3278457.25 620734.84,3278451.92 620734.84,3278451.92 620720.93,3278447.87 620720.93,3278447.87 620703.24,3278442.74 620703.24,3278442.74 620681.16,3278436.31 620681.16,3278436.31 620659.07,3278429.93 620659.07,3278429.93 620635.80,3278423.15 620635.80,3278423.15 620614.13,3278416.86 620614.13,3278416.86 620595.72,3278411.52 620595.72,3278411.52 620582.28,3278407.62 620582.28,3278407.62 620566.64,3278403.06 620566.64,3278403.06 620549.49,3278398.09 620549.49,3278398.09 620528.51,3278391.89 620528.51,3278391.89 620511.80,3278387.07 620511.80,3278387.07 620497.83,3278382.99 620497.83,3278382.99 620485.49,3278379.44 620485.49,3278379.44 620468.30,3278374.43 620468.30,3278374.43 620451.89,3278369.63 620451.89,3278369.63 620429.14,3278363.06 620429.14,3278363.06 620411.16,3278357.90 620411.16,3278357.90 620398.80,3278354.29 620398.80,3278354.29 620385.13,3278350.33 620385.13,3278350.33 620372.96,3278346.72 620372.96,3278346.72 620357.15,3278341.88 620357.15,3278341.88 620346.25,3278338.47 620346.25,3278338.47 620327.27,3278332.41 620327.27,3278332.41 620313.84,3278328.10 620313.84,3278328.10 620290.17,3278320.33 620290.17,3278320.33 620270.31,3278313.59 620270.31,3278313.59 620251.28,3278307.07 620251.28,3278307.07 620233.71,3278301.08 620233.71,3278301.08 620215.65,3278294.86 620215.65,3278294.86 620191.55,3278286.53 620191.55,3278286.53 620166.66,3278277.90 620166.66,3278277.90 620145.04,3278270.40 620145.04,3278270.40 620125.97,3278263.87 620125.97,3278263.87 620107.39,3278257.40 620107.39,3278257.40 620090.81,3278251.66 620090.81,3278251.66 620069.66,3278244.26 620069.66,3278244.26 620048.66,3278237.03 620048.66,3278237.03 620031.63,3278231.13 620031.63,3278231.13 620011.83,3278224.28 620011.83,3278224.28 619993.22,3278217.82 619993.22,3278217.82 619975.41,3278211.71 619975.41,3278211.71 619959.36,3278206.12 619959.36,3278206.12 619938.66,3278198.99 619938.66,3278198.99 619919.78,3278192.51 619919.78,3278192.51 619903.33,3278186.76 619903.33,3278186.76 619883.66,3278179.89 619883.66,3278179.89 619864.17,3278173.16 619864.17,3278173.16 619842.02,3278165.46 619842.02,3278165.46 619819.30,3278157.63 619819.30,3278157.63 619798.41,3278150.49 619798.41,3278150.49 619782.32,3278144.87">
        <lane index="0" width="3.66" type="shoulder" disallow="all" />
        <lane index="1" width="3.66" />
        <lane index="2" width="3.66" />
    </edge>
    <edge id="436.0" from="node_420_end" to="node_436_end" numLanes="2" speed="13.89" type="town" shape="626647.71,3280353.72 626644.56,3280352.71 626644.56,3280352.71 626633.51,3280349.15 626633.51,3280349.15 626603.12,3280339.37 626603.12,3280339.37 626596.19,3280337.12">
        <lane index="0" width="3.66" />
        <lane index="1" width="3.66" />
    </edge>
    <edge id="437.0" from="node_436_end" to="junction_98" numLanes="3" speed="13.89" type="town" shape="626596.19,3280337.12 626590.10,3280335.15">
        <lane index="0" width="3.66" />
        <lane index="1" width="3.66" />
        <lane index="2" width="3.66" />
    </edge>
    <edge id="438.0" from="junction_98" to="node_438_end" numLanes="1" speed="13.89" type="town" shape="626551.91,3280333.56 626540.55,3280330.88 626540.55,3280330.88 626529.26,3280328.23 626529.26,3280328.23 626518.84,3280325.82 626518.84,3280325.82 626506.75,3280322.96 626506.75,3280322.96 626494.80,3280320.23 626494.80,3280320.23 626482.80,3280317.39 626482.80,3280317.39 626472.47,3280315.02 626472.47,3280315.02 626457.12,3280311.56 626457.12,3280311.56 626444.91,3280308.65 626444.91,3280308.65 626426.96,3280304.40 626426.96,3280304.40 626413.71,3280301.36 626413.71,3280301.36 626403.10,3280299.03 626403.10,3280299.03 626396.00,3280297.65">
        <lane index="0" width="3.66" />
    </edge>