<?xml version="1.0" encoding="UTF-8"?>

<!-- generated on 2025-10-19 17:33:43 by Eclipse SUMO netconvert Version 1.23.1
<netconvertConfiguration xmlns:xsi="http://www.w3.org/2001/XMLSchema-instance" xsi:noNamespaceSchemaLocation="http://sumo.dlr.de/xsd/netconvertConfiguration.xsd">

    <input>
        <node-files value="/home/sdai/harry/TeraSim/jupiter/wb/jupiter_wb_tiles/tile_0154/tile_0154.nod.xml"/>
        <edge-files value="/home/sdai/harry/TeraSim/jupiter/wb/jupiter_wb_tiles/tile_0154/tile_0154.edg.xml"/>
        <connection-files value="/home/sdai/harry/TeraSim/jupiter/wb/jupiter_wb_tiles/tile_0154/tile_0154.con.xml"/>
    </input>

    <output>
        <output-file value="/home/sdai/harry/TeraSim/jupiter/wb/jupiter_wb_tiles/tile_0154/tile_0154.net.xml"/>
        <output.street-names value="true"/>
        <output.original-names value="true"/>
    </output>

    <processing>
        <geometry.remove value="false"/>
        <geometry.min-dist value="0.5"/>
        <edges.join value="false"/>
    </processing>

    <junctions>
        <no-internal-links value="false"/>
        <no-turnarounds value="true"/>
        <junctions.join value="true"/>
        <junctions.join-dist value="10"/>
        <junctions.corner-detail value="5"/>
        <junctions.internal-link-detail value="5"/>
        <junctions.limit-turn-speed value="5.5"/>
        <rectangular-lane-cut value="true"/>
        <check-lane-foes.all value="true"/>
    </junctions>

</netconvertConfiguration>
-->

<net version="1.20" junctionCornerDetail="5" junctionLinkDetail="5" rectangularLaneCut="true" limitTurnSpeed="5.50" checkLaneFoesAll="1" xmlns:xsi="http://www.w3.org/2001/XMLSchema-instance" xsi:noNamespaceSchemaLocation="http://sumo.dlr.de/xsd/net_file.xsd">

    <location netOffset="-763051.74,-3294329.63" convBoundary="0.00,0.00,9738.40,1591.92" origBoundary="0.00,0.00,772790.14,3295921.55" projParameter="!"/>

    <edge id=":j_merge_end_5_0" function="internal">
        <lane id=":j_merge_end_5_0_0" index="0" disallow="all" speed="13.89" length="3.17" width="3.66" shape="7702.79,1411.95 7705.66,1397.59"/>
        <lane id=":j_merge_end_5_0_1" index="1" speed="13.89" length="3.17" width="3.66" shape="7703.58,1408.38 7703.29,1408.31"/>
        <lane id=":j_merge_end_5_0_2" index="2" speed="13.89" length="3.17" width="3.66" shape="7704.37,1404.81 7704.08,1404.74"/>
        <lane id=":j_merge_end_5_0_3" index="3" speed="13.89" length="3.17" width="3.66" shape="7705.17,1401.23 7704.87,1401.17"/>
        <lane id=":j_merge_end_5_0_4" index="4" disallow="all" speed="13.89" length="3.17" width="3.66" shape="7705.96,1397.66 7705.66,1397.59"/>
    </edge>
    <edge id=":j_merge_start_5_0" function="internal">
        <lane id=":j_merge_start_5_0_0" index="0" speed="13.89" length="109.19" width="3.66" shape="7917.81,1456.95 7810.59,1436.33"/>
    </edge>
    <edge id=":j_merge_start_5_1" function="internal">
        <lane id=":j_merge_start_5_1_0" index="0" speed="13.89" length="218.36" width="3.66" shape="8024.15,1481.98 7811.41,1432.76"/>
        <lane id=":j_merge_start_5_1_1" index="1" speed="13.89" length="218.36" width="3.66" shape="8024.98,1478.41 7812.24,1429.19"/>
        <lane id=":j_merge_start_5_1_2" index="2" speed="13.89" length="218.36" width="3.66" shape="8025.80,1474.85 7813.06,1425.63"/>
        <lane id=":j_merge_start_5_1_3" index="3" disallow="all" speed="13.89" length="218.36" width="3.66" shape="8026.63,1471.28 7813.89,1422.06"/>
    </edge>
    <edge id=":junction_123_0" function="internal">
        <lane id=":junction_123_0_0" index="0" speed="13.89" length="125.89" width="3.66" shape="7055.75,1265.52 6932.03,1242.29"/>
    </edge>
    <edge id=":junction_123_1" function="internal">
        <lane id=":junction_123_1_0" index="0" speed="13.89" length="126.43" width="3.66" shape="7055.75,1265.52 6932.31,1238.24"/>
        <lane id=":junction_123_1_1" index="1" speed="13.89" length="126.43" width="3.66" shape="7056.54,1261.95 6933.10,1234.66"/>
        <lane id=":junction_123_1_2" index="2" speed="13.89" length="126.43" width="3.66" shape="7057.34,1258.38 6933.89,1231.09"/>
        <lane id=":junction_123_1_3" index="3" disallow="all" speed="13.89" length="126.43" width="3.66" shape="7058.13,1254.81 6934.68,1227.51"/>
    </edge>
    <edge id=":junction_7_0" function="internal">
        <lane id=":junction_7_0_0" index="0" speed="13.89" length="221.34" width="3.66" shape="4179.09,682.67 3960.51,647.65"/>
        <lane id=":junction_7_0_1" index="1" speed="13.89" length="221.34" width="3.66" shape="4179.64,679.06 3961.08,644.03"/>
        <lane id=":junction_7_0_2" index="2" speed="13.89" length="221.34" width="3.66" shape="4180.19,675.44 3961.66,640.42"/>
    </edge>
    <edge id=":junction_7_3" function="internal">
        <lane id=":junction_7_3_0" index="0" speed="13.89" length="210.72" width="3.66" shape="4167.97,684.51 3960.51,647.65"/>
    </edge>
    <edge id=":junction_70_0" function="internal">
        <lane id=":junction_70_0_0" index="0" speed="13.89" length="53.20" width="3.66" shape="3022.29,501.02 2969.29,496.47"/>
    </edge>
    <edge id=":junction_70_1" function="internal">
        <lane id=":junction_70_1_0" index="0" speed="13.89" length="54.16" width="3.66" shape="3022.87,497.41 2969.38,488.81"/>
        <lane id=":junction_70_1_1" index="1" speed="13.89" length="54.16" width="3.66" shape="3023.45,493.80 2969.97,485.19"/>
        <lane id=":junction_70_1_2" index="2" speed="13.89" length="54.16" width="3.66" shape="3024.02,490.18 2970.56,481.58"/>
        <lane id=":junction_70_1_3" index="3" disallow="all" speed="13.89" length="54.16" width="3.66" shape="3024.60,486.57 2971.14,477.97"/>
    </edge>
    <edge id=":junction_8_0" function="internal">
        <lane id=":junction_8_0_0" index="0" speed="13.89" length="76.23" width="3.66" shape="4441.62,734.79 4367.49,720.26"/>
        <lane id=":junction_8_0_1" index="1" speed="13.89" length="76.23" width="3.66" shape="4441.62,734.79 4432.31,731.63 4414.40,725.29 4391.85,718.25 4368.63,713.02"/>
        <lane id=":junction_8_0_2" index="2" speed="13.89" length="76.23" width="3.66" shape="4441.62,734.79 4432.40,731.06 4414.68,723.48 4392.33,715.20 4369.20,709.41"/>
    </edge>
    <edge id=":junction_8_3" function="internal">
        <lane id=":junction_8_3_0" index="0" disallow="all" speed="13.89" length="75.54" width="3.66" shape="4442.62,728.63 4368.06,716.64"/>
        <lane id=":junction_8_3_1" index="1" speed="13.89" length="75.54" width="3.66" shape="4443.20,725.02 4368.63,713.02"/>
        <lane id=":junction_8_3_2" index="2" speed="13.89" length="75.54" width="3.66" shape="4443.78,721.41 4369.20,709.41"/>
        <lane id=":junction_8_3_3" index="3" speed="13.89" length="75.54" width="3.66" shape="4444.35,717.79 4369.77,705.79"/>
        <lane id=":junction_8_3_4" index="4" disallow="all" speed="13.89" length="75.54" width="3.66" shape="4444.93,714.18 4370.34,702.18"/>
    </edge>
    <edge id=":node_101_end_0" function="internal">
        <lane id=":node_101_end_0_0" index="0" speed="13.89" length="0.30" width="3.66" shape="4610.83,751.83 4610.53,751.78"/>
        <lane id=":node_101_end_0_1" index="1" speed="13.89" length="0.30" width="3.66" shape="4611.41,748.22 4611.12,748.17"/>
        <lane id=":node_101_end_0_2" index="2" speed="13.89" length="0.30" width="3.66" shape="4612.00,744.60 4611.70,744.56"/>
    </edge>
    <edge id=":node_101_start_0" function="internal">
        <lane id=":node_101_start_0_0" index="0" speed="13.89" length="0.30" width="3.66" shape="4651.59,758.39 4651.29,758.35"/>
        <lane id=":node_101_start_0_1" index="1" speed="13.89" length="0.30" width="3.66" shape="4652.17,754.78 4651.87,754.73"/>
        <lane id=":node_101_start_0_2" index="2" speed="13.89" length="0.30" width="3.66" shape="4652.74,751.16 4652.45,751.12"/>
    </edge>
    <edge id=":node_104_end_0" function="internal">
        <lane id=":node_104_end_0_0" index="0" speed="13.89" length="0.30" width="3.66" shape="2497.52,413.20 2497.21,413.15"/>
        <lane id=":node_104_end_0_1" index="1" speed="13.89" length="0.30" width="3.66" shape="2498.10,409.59 2497.80,409.54"/>
        <lane id=":node_104_end_0_2" index="2" speed="13.89" length="0.30" width="3.66" shape="2498.68,405.97 2498.39,405.93"/>
    </edge>
    <edge id=":node_104_start_0" function="internal">
        <lane id=":node_104_start_0_0" index="0" speed="13.89" length="0.30" width="3.66" shape="2505.70,414.52 2505.40,414.47"/>
        <lane id=":node_104_start_0_1" index="1" speed="13.89" length="0.30" width="3.66" shape="2506.28,410.91 2505.99,410.86"/>
        <lane id=":node_104_start_0_2" index="2" speed="13.89" length="0.30" width="3.66" shape="2506.86,407.29 2506.57,407.25"/>
    </edge>
    <edge id=":node_106_end_0" function="internal">
        <lane id=":node_106_end_0_0" index="0" speed="13.89" length="0.30" width="3.66" shape="1987.62,331.50 1987.32,331.45"/>
        <lane id=":node_106_end_0_1" index="1" speed="13.89" length="0.30" width="3.66" shape="1988.21,327.89 1987.92,327.84"/>
        <lane id=":node_106_end_0_2" index="2" speed="13.89" length="0.30" width="3.66" shape="1988.81,324.28 1988.52,324.23"/>
    </edge>
    <edge id=":node_106_start_0" function="internal">
        <lane id=":node_106_start_0_0" index="0" speed="13.89" length="0.30" width="3.66" shape="2131.58,354.56 2131.28,354.51"/>
        <lane id=":node_106_start_0_1" index="1" speed="13.89" length="0.30" width="3.66" shape="2132.16,350.95 2131.86,350.90"/>
        <lane id=":node_106_start_0_2" index="2" speed="13.89" length="0.30" width="3.66" shape="2132.73,347.33 2132.45,347.29"/>
    </edge>
    <edge id=":node_108_end_0" function="internal">
        <lane id=":node_108_end_0_0" index="0" speed="13.89" length="0.30" width="3.66" shape="3864.64,632.26 3864.34,632.21"/>
        <lane id=":node_108_end_0_1" index="1" speed="13.89" length="0.30" width="3.66" shape="3865.22,628.65 3864.92,628.60"/>
        <lane id=":node_108_end_0_2" index="2" speed="13.89" length="0.30" width="3.66" shape="3865.80,625.03 3865.50,624.99"/>
    </edge>
    <edge id=":node_112_start_0" function="internal">
        <lane id=":node_112_start_0_0" index="0" speed="13.89" length="3.18" width="3.66" shape="3034.79,499.31 3031.64,498.81"/>
        <lane id=":node_112_start_0_1" index="1" speed="13.89" length="3.18" width="3.66" shape="3035.36,495.70 3032.22,495.20"/>
        <lane id=":node_112_start_0_2" index="2" speed="13.89" length="3.18" width="3.66" shape="3035.93,492.08 3032.80,491.59"/>
    </edge>
    <edge id=":node_112_start_3" function="internal">
        <lane id=":node_112_start_3_0" index="0" speed="13.89" length="4.15" width="3.66" shape="3034.11,503.31 3033.19,503.12 3032.58,502.88 3031.98,502.64 3031.06,502.43"/>
        <lane id=":node_112_start_3_1" index="1" speed="13.89" length="4.15" width="3.66" shape="3034.11,503.31 3031.64,498.81"/>
    </edge>
    <edge id=":node_114_end_0" function="internal">
        <lane id=":node_114_end_0_0" index="0" speed="13.89" length="0.30" width="3.66" shape="2933.72,493.05 2933.43,493.02"/>
    </edge>
    <edge id=":node_53_end_0" function="internal">
        <lane id=":node_53_end_0_0" index="0" speed="13.89" length="0.30" width="3.66" shape="8223.87,1528.22 8223.58,1528.16"/>
        <lane id=":node_53_end_0_1" index="1" speed="13.89" length="0.30" width="3.66" shape="8224.70,1524.66 8224.41,1524.59"/>
        <lane id=":node_53_end_0_2" index="2" speed="13.89" length="0.30" width="3.66" shape="8225.53,1521.09 8225.23,1521.02"/>
    </edge>
    <edge id=":node_53_start_0" function="internal">
        <lane id=":node_53_start_0_0" index="0" speed="13.89" length="0.30" width="3.66" shape="8251.80,1534.71 8251.51,1534.64"/>
        <lane id=":node_53_start_0_1" index="1" speed="13.89" length="0.30" width="3.66" shape="8252.63,1531.14 8252.33,1531.07"/>
        <lane id=":node_53_start_0_2" index="2" speed="13.89" length="0.30" width="3.66" shape="8253.45,1527.57 8253.16,1527.51"/>
    </edge>
    <edge id=":node_54_end_0" function="internal">
        <lane id=":node_54_end_0_0" index="0" speed="13.89" length="0.30" width="3.66" shape="4659.80,759.70 4659.50,759.65"/>
        <lane id=":node_54_end_0_1" index="1" speed="13.89" length="0.30" width="3.66" shape="4660.37,756.08 4660.08,756.03"/>
        <lane id=":node_54_end_0_2" index="2" speed="13.89" length="0.30" width="3.66" shape="4660.94,752.47 4660.65,752.42"/>
    </edge>
    <edge id=":node_54_start_0" function="internal">
        <lane id=":node_54_start_0_0" index="0" speed="13.89" length="0.30" width="3.66" shape="6842.24,1218.39 6841.95,1218.33"/>
        <lane id=":node_54_start_0_1" index="1" speed="13.89" length="0.30" width="3.66" shape="6843.03,1214.82 6842.73,1214.76"/>
        <lane id=":node_54_start_0_2" index="2" speed="13.89" length="0.30" width="3.66" shape="6843.81,1211.25 6843.51,1211.18"/>
    </edge>
    <edge id=":node_55_end_0" function="internal">
        <lane id=":node_55_end_0_0" index="0" speed="13.89" length="3.00" width="3.66" shape="6878.38,1226.35 6875.45,1225.71"/>
        <lane id=":node_55_end_0_1" index="1" speed="13.89" length="3.00" width="3.66" shape="6879.17,1222.78 6876.24,1222.13"/>
        <lane id=":node_55_end_0_2" index="2" speed="13.89" length="3.00" width="3.66" shape="6879.95,1219.20 6877.03,1218.56"/>
    </edge>
    <edge id=":node_56_end_0" function="internal">
        <lane id=":node_56_end_0_0" index="0" speed="13.89" length="0.30" width="3.66" shape="6840.23,1228.02 6839.93,1227.98"/>
    </edge>
    <edge id=":node_56_start_0" function="internal">
        <lane id=":node_56_start_0_0" index="0" speed="13.89" length="0.30" width="3.66" shape="6874.83,1233.23 6874.54,1233.19"/>
    </edge>
    <edge id=":node_57_end_0" function="internal">
        <lane id=":node_57_end_0_0" index="0" speed="13.89" length="0.30" width="3.66" shape="7267.89,1312.25 7267.59,1312.19"/>
        <lane id=":node_57_end_0_1" index="1" speed="13.89" length="0.30" width="3.66" shape="7268.68,1308.68 7268.38,1308.61"/>
        <lane id=":node_57_end_0_2" index="2" speed="13.89" length="0.30" width="3.66" shape="7269.46,1305.10 7269.17,1305.04"/>
    </edge>
    <edge id=":node_58_end_0" function="internal">
        <lane id=":node_58_end_0_0" index="0" speed="13.89" length="0.30" width="3.66" shape="9314.70,1469.90 9314.42,1469.99"/>
        <lane id=":node_58_end_0_1" index="1" speed="13.89" length="0.30" width="3.66" shape="9313.60,1466.41 9313.31,1466.50"/>
        <lane id=":node_58_end_0_2" index="2" speed="13.89" length="0.30" width="3.66" shape="9312.49,1462.92 9312.20,1463.01"/>
    </edge>
    <edge id=":node_58_start_0" function="internal">
        <lane id=":node_58_start_0_0" index="0" speed="13.89" length="3.00" width="3.66" shape="9654.61,1362.14 9651.76,1363.04"/>
        <lane id=":node_58_start_0_1" index="1" speed="13.89" length="3.00" width="3.66" shape="9653.50,1358.65 9650.64,1359.56"/>
        <lane id=":node_58_start_0_2" index="2" speed="13.89" length="3.00" width="3.66" shape="9652.40,1355.16 9649.53,1356.07"/>
    </edge>
    <edge id=":node_59_end_0" function="internal">
        <lane id=":node_59_end_0_0" index="0" speed="13.89" length="0.30" width="3.66" shape="7137.36,1283.49 7137.07,1283.43"/>
        <lane id=":node_59_end_0_1" index="1" speed="13.89" length="0.30" width="3.66" shape="7138.15,1279.92 7137.86,1279.85"/>
        <lane id=":node_59_end_0_2" index="2" speed="13.89" length="0.30" width="3.66" shape="7138.94,1276.34 7138.65,1276.28"/>
    </edge>
    <edge id=":node_60_end_0" function="internal">
        <lane id=":node_60_end_0_0" index="0" speed="13.89" length="0.57" width="3.66" shape="8551.33,1596.40 8550.64,1596.32"/>
        <lane id=":node_60_end_0_1" index="1" speed="13.89" length="0.57" width="3.66" shape="8551.70,1592.76 8551.13,1592.69"/>
        <lane id=":node_60_end_0_2" index="2" speed="13.89" length="0.57" width="3.66" shape="8552.07,1589.12 8551.61,1589.06"/>
    </edge>
    <edge id=":node_60_start_0" function="internal">
        <lane id=":node_60_start_0_0" index="0" speed="13.89" length="0.10" width="3.66" shape="8608.96,1601.68 8608.96,1601.68"/>
        <lane id=":node_60_start_0_1" index="1" speed="13.89" length="0.10" width="3.66" shape="8609.22,1598.03 8609.23,1598.03"/>
        <lane id=":node_60_start_0_2" index="2" speed="13.89" length="0.10" width="3.66" shape="8609.49,1594.38 8609.49,1594.38"/>
    </edge>
    <edge id=":node_64_end_0" function="internal">
        <lane id=":node_64_end_0_0" index="0" speed="13.89" length="0.43" width="3.66" shape="8952.76,1578.35 8952.26,1578.45"/>
        <lane id=":node_64_end_0_1" index="1" speed="13.89" length="0.43" width="3.66" shape="8951.96,1574.78 8951.54,1574.86"/>
        <lane id=":node_64_end_0_2" index="2" speed="13.89" length="0.43" width="3.66" shape="8951.16,1571.20 8950.83,1571.28"/>
    </edge>
    <edge id=":node_64_start_0" function="internal">
        <lane id=":node_64_start_0_0" index="0" speed="13.89" length="0.30" width="3.66" shape="9074.39,1546.09 9074.11,1546.18"/>
        <lane id=":node_64_start_0_1" index="1" speed="13.89" length="0.30" width="3.66" shape="9073.27,1542.61 9072.99,1542.70"/>
        <lane id=":node_64_start_0_2" index="2" speed="13.89" length="0.30" width="3.66" shape="9072.16,1539.12 9071.87,1539.21"/>
    </edge>
    <edge id=":node_66_start_0" function="internal">
        <lane id=":node_66_start_0_0" index="0" speed="13.89" length="0.10" width="3.66" shape="9185.38,1510.90 9185.38,1510.90"/>
        <lane id=":node_66_start_0_1" index="1" speed="13.89" length="0.10" width="3.66" shape="9184.27,1507.41 9184.27,1507.41"/>
        <lane id=":node_66_start_0_2" index="2" speed="13.89" length="0.10" width="3.66" shape="9183.16,1503.92 9183.16,1503.92"/>
    </edge>
    <edge id=":node_71_end_0" function="internal">
        <lane id=":node_71_end_0_0" index="0" speed="13.89" length="3.00" width="3.66" shape="8181.29,1518.36 8178.38,1517.68"/>
        <lane id=":node_71_end_0_1" index="1" speed="13.89" length="3.00" width="3.66" shape="8182.12,1514.79 8179.20,1514.12"/>
        <lane id=":node_71_end_0_2" index="2" speed="13.89" length="3.00" width="3.66" shape="8182.95,1511.23 8180.02,1510.55"/>
    </edge>
    <edge id=":node_75_end_0" function="internal">
        <lane id=":node_75_end_0_0" index="0" speed="13.89" length="0.29" width="3.66" shape="8177.93,1525.24 8177.65,1525.16"/>
    </edge>
    <edge id=":node_75_start_0" function="internal">
        <lane id=":node_75_start_0_0" index="0" speed="13.89" length="0.10" width="3.66" shape="8221.36,1537.19 8221.36,1537.19"/>
    </edge>
    <edge id=":node_78_start_0" function="internal">
        <lane id=":node_78_start_0_0" index="0" speed="13.89" length="0.10" width="3.66" shape="8248.65,1544.71 8248.65,1544.71"/>
    </edge>
    <edge id=":node_79_start_0" function="internal">
        <lane id=":node_79_start_0_0" index="0" speed="13.89" length="0.10" width="3.66" shape="9655.80,1372.21 9655.80,1372.21"/>
    </edge>
    <edge id=":node_82_end_0" function="internal">
        <lane id=":node_82_end_0_0" index="0" speed="13.89" length="0.30" width="3.66" shape="2139.63,355.86 2139.33,355.81"/>
        <lane id=":node_82_end_0_1" index="1" speed="13.89" length="0.30" width="3.66" shape="2140.21,352.25 2139.92,352.20"/>
        <lane id=":node_82_end_0_2" index="2" speed="13.89" length="0.30" width="3.66" shape="2140.80,348.63 2140.51,348.59"/>
    </edge>
    <edge id=":node_82_start_0" function="internal">
        <lane id=":node_82_start_0_0" index="0" speed="13.89" length="0.30" width="3.66" shape="2455.19,406.44 2454.90,406.39"/>
        <lane id=":node_82_start_0_1" index="1" speed="13.89" length="0.30" width="3.66" shape="2455.78,402.82 2455.49,402.78"/>
        <lane id=":node_82_start_0_2" index="2" speed="13.89" length="0.30" width="3.66" shape="2456.37,399.21 2456.07,399.16"/>
    </edge>
    <edge id=":node_84_end_0" function="internal">
        <lane id=":node_84_end_0_0" index="0" speed="13.89" length="0.30" width="3.66" shape="3122.94,513.46 3122.62,513.41"/>
        <lane id=":node_84_end_0_1" index="1" speed="13.89" length="0.30" width="3.66" shape="3123.51,509.85 3123.21,509.80"/>
        <lane id=":node_84_end_0_2" index="2" speed="13.89" length="0.30" width="3.66" shape="3124.08,506.23 3123.81,506.19"/>
    </edge>
    <edge id=":node_84_start_0" function="internal">
        <lane id=":node_84_start_0_0" index="0" speed="13.89" length="0.30" width="3.66" shape="3816.99,624.63 3816.72,624.59"/>
        <lane id=":node_84_start_0_1" index="1" speed="13.89" length="0.30" width="3.66" shape="3817.58,621.02 3817.29,620.97"/>
        <lane id=":node_84_start_0_2" index="2" speed="13.89" length="0.30" width="3.66" shape="3818.18,617.41 3817.86,617.36"/>
    </edge>
    <edge id=":node_86_end_0" function="internal">
        <lane id=":node_86_end_0_0" index="0" speed="13.89" length="0.30" width="3.66" shape="152.66,37.44 152.37,37.40"/>
        <lane id=":node_86_end_0_1" index="1" speed="13.89" length="0.30" width="3.66" shape="153.24,33.83 152.95,33.78"/>
        <lane id=":node_86_end_0_2" index="2" speed="13.89" length="0.30" width="3.66" shape="153.82,30.22 153.52,30.17"/>
    </edge>
    <edge id=":node_89_start_0" function="internal">
        <lane id=":node_89_start_0_0" index="0" speed="13.89" length="0.30" width="3.66" shape="2934.05,483.15 2933.77,483.11"/>
        <lane id=":node_89_start_0_1" index="1" speed="13.89" length="0.30" width="3.66" shape="2934.65,479.54 2934.36,479.49"/>
        <lane id=":node_89_start_0_2" index="2" speed="13.89" length="0.30" width="3.66" shape="2935.26,475.93 2934.94,475.88"/>
    </edge>
    <edge id=":node_91_end_0" function="internal">
        <lane id=":node_91_end_0_0" index="0" speed="13.89" length="7.87" width="3.66" shape="3113.66,511.93 3105.82,511.24"/>
    </edge>
    <edge id=":node_91_end_1" function="internal">
        <lane id=":node_91_end_1_0" index="0" speed="13.89" length="8.11" width="3.66" shape="3113.66,511.93 3105.67,510.64"/>
        <lane id=":node_91_end_1_1" index="1" speed="13.89" length="8.11" width="3.66" shape="3114.25,508.32 3106.25,507.03"/>
        <lane id=":node_91_end_1_2" index="2" speed="13.89" length="8.11" width="3.66" shape="3114.85,504.71 3106.82,503.41"/>
    </edge>
    <edge id=":node_94_end_0" function="internal">
        <lane id=":node_94_end_0_0" index="0" speed="13.89" length="0.30" width="3.66" shape="3856.61,630.97 3856.29,630.92"/>
        <lane id=":node_94_end_0_1" index="1" speed="13.89" length="0.30" width="3.66" shape="3857.17,627.36 3856.88,627.31"/>
        <lane id=":node_94_end_0_2" index="2" speed="13.89" length="0.30" width="3.66" shape="3857.74,623.74 3857.47,623.70"/>
    </edge>

    <edge id="100.0" from="node_86_end" to="junction_6" priority="-1" type="town" shape="154.54,24.77 150.53,24.13 136.59,21.89 122.48,19.63 108.85,17.47 95.27,15.28 84.83,13.60 69.59,11.15 59.00,9.44 51.02,8.17 40.06,6.40 29.13,4.65 17.80,2.86 9.40,1.49 0.00,0.00">
        <lane id="100.0_0" index="0" disallow="all" speed="13.89" length="156.35" width="3.66" shape="151.79,41.01 147.92,40.39 133.98,38.15 119.89,35.89 106.25,33.73 92.65,31.54 82.21,29.86 66.97,27.41 56.39,25.70 48.41,24.43 37.45,22.66 26.54,20.92 15.20,19.12 6.79,17.75 -2.58,16.27" type="shoulder"/>
        <lane id="100.0_1" index="1" speed="13.89" length="156.35" width="3.66" shape="152.37,37.40 148.50,36.78 134.56,34.54 120.46,32.28 106.83,30.12 93.23,27.93 82.80,26.25 67.55,23.80 56.97,22.09 48.99,20.82 38.03,19.05 27.12,17.30 15.77,15.51 7.37,14.14 -2.01,12.65"/>
        <lane id="100.0_2" index="2" speed="13.89" length="156.35" width="3.66" shape="152.95,33.78 149.08,33.16 135.14,30.92 121.04,28.67 107.41,26.51 93.81,24.31 83.38,22.63 68.14,20.18 57.55,18.47 49.57,17.20 38.61,15.43 27.69,13.69 16.35,11.89 7.95,10.52 -1.43,9.04"/>
        <lane id="100.0_3" index="3" speed="13.89" length="156.35" width="3.66" shape="153.52,30.17 149.66,29.55 135.72,27.31 121.62,25.05 107.98,22.89 94.40,20.70 83.96,19.02 68.72,16.57 58.13,14.86 50.15,13.59 39.19,11.82 28.27,10.07 16.93,8.28 8.53,6.91 -0.86,5.42"/>
        <lane id="100.0_4" index="4" disallow="all" speed="13.89" length="156.35" width="3.66" shape="154.10,26.55 150.24,25.94 136.30,23.70 122.19,21.44 108.56,19.28 94.98,17.09 84.54,15.41 69.30,12.96 58.71,11.25 50.73,9.98 39.77,8.21 28.84,6.46 17.51,4.67 9.11,3.30 -0.29,1.81" type="shoulder"/>
    </edge>
    <edge id="101.0" from="node_101_start" to="node_101_end" priority="-1" type="town" shape="4653.46,745.72 4652.40,745.55 4646.02,744.51 4639.91,743.54 4636.35,742.94 4630.43,742.01 4624.42,741.04 4617.86,739.99 4612.72,739.16">
        <lane id="101.0_0" index="0" disallow="all" speed="13.89" length="40.98" width="3.66" shape="4650.71,761.96 4649.76,761.81 4643.40,760.77 4637.27,759.80 4633.73,759.20 4627.84,758.28 4621.81,757.30 4615.25,756.25 4610.24,755.44" type="shoulder"/>
        <lane id="101.0_1" index="1" speed="13.89" length="40.98" width="3.66" shape="4651.29,758.35 4650.34,758.19 4643.98,757.16 4637.86,756.18 4634.31,755.59 4628.42,754.66 4622.39,753.69 4615.83,752.64 4610.83,751.83"/>
        <lane id="101.0_2" index="2" speed="13.89" length="40.98" width="3.66" shape="4651.87,754.73 4650.93,754.58 4644.57,753.54 4638.44,752.57 4634.89,751.97 4628.99,751.05 4622.97,750.07 4616.41,749.02 4611.41,748.22"/>
        <lane id="101.0_3" index="3" speed="13.89" length="40.98" width="3.66" shape="4652.45,751.12 4651.52,750.97 4645.15,749.93 4639.03,748.96 4635.48,748.36 4629.57,747.43 4623.55,746.46 4616.99,745.41 4612.00,744.60"/>
        <lane id="101.0_4" index="4" disallow="all" speed="13.89" length="40.98" width="3.66" shape="4653.03,747.50 4652.11,747.36 4645.73,746.32 4639.62,745.35 4636.06,744.75 4630.14,743.82 4624.13,742.85 4617.57,741.80 4612.58,740.99" type="shoulder"/>
    </edge>
    <edge id="104.0" from="node_104_start" to="node_104_end" priority="-1" type="town" shape="2507.59,401.85 2502.96,401.10 2499.41,400.53">
        <lane id="104.0_0" index="0" disallow="all" speed="13.89" length="7.99" width="3.66" shape="2504.82,418.09 2500.34,417.36 2496.94,416.81" type="shoulder"/>
        <lane id="104.0_1" index="1" speed="13.89" length="7.99" width="3.66" shape="2505.40,414.47 2500.92,413.75 2497.52,413.20"/>
        <lane id="104.0_2" index="2" speed="13.89" length="7.99" width="3.66" shape="2505.99,410.86 2501.50,410.13 2498.10,409.59"/>
        <lane id="104.0_3" index="3" speed="13.89" length="7.99" width="3.66" shape="2506.57,407.25 2502.09,406.52 2498.68,405.97"/>
        <lane id="104.0_4" index="4" disallow="all" speed="13.89" length="7.99" width="3.66" shape="2507.16,403.63 2502.67,402.91 2499.26,402.36" type="shoulder"/>
    </edge>
    <edge id="105.0" from="node_105_start" to="junction_8" priority="-1" type="town" shape="4571.01,761.21 4552.59,757.19 4519.83,749.96 4497.06,744.85 4483.81,741.89 4463.70,737.53 4442.82,733.17 4441.98,733.00">
        <lane id="105.0_0" index="0" speed="13.89" length="132.05" width="3.66" shape="4570.62,763.00 4552.20,758.98 4519.43,751.75 4496.66,746.64 4483.42,743.68 4463.32,739.32 4442.45,734.96 4441.62,734.79"/>
    </edge>
    <edge id="106.0" from="node_106_start" to="node_106_end" priority="-1" type="town" shape="2133.46,341.89 2123.38,340.26 2108.49,337.88 2096.32,335.87 2084.82,334.07 2070.98,331.89 2058.90,329.96 2046.95,328.08 2033.67,325.97 2019.11,323.61 2005.15,321.39 1992.71,319.36 1989.56,318.84">
        <lane id="106.0_0" index="0" disallow="all" speed="13.89" length="145.48" width="3.66" shape="2130.69,358.13 2120.77,356.52 2105.85,354.14 2093.70,352.13 2082.26,350.34 2068.40,348.16 2056.32,346.23 2044.38,344.35 2031.06,342.23 2016.50,339.87 2002.53,337.65 1990.05,335.61 1987.02,335.11" type="shoulder"/>
        <lane id="106.0_1" index="1" speed="13.89" length="145.48" width="3.66" shape="2131.28,354.51 2121.35,352.91 2106.44,350.52 2094.28,348.52 2082.83,346.72 2068.97,344.54 2056.89,342.61 2044.95,340.73 2031.64,338.62 2017.08,336.26 2003.11,334.04 1990.64,332.00 1987.62,331.50"/>
        <lane id="106.0_2" index="2" speed="13.89" length="145.48" width="3.66" shape="2131.86,350.90 2121.93,349.29 2107.02,346.91 2094.87,344.90 2083.40,343.11 2069.55,340.93 2057.47,339.00 2045.52,337.12 2032.22,335.00 2017.66,332.64 2003.70,330.42 1991.23,328.39 1988.21,327.89"/>
        <lane id="106.0_3" index="3" speed="13.89" length="145.48" width="3.66" shape="2132.45,347.29 2122.51,345.68 2107.61,343.30 2095.45,341.29 2083.97,339.49 2070.12,337.31 2058.04,335.38 2046.09,333.50 2032.80,331.39 2018.24,329.03 2004.28,326.81 1991.82,324.78 1988.81,324.28"/>
        <lane id="106.0_4" index="4" disallow="all" speed="13.89" length="145.48" width="3.66" shape="2133.03,343.67 2123.09,342.07 2108.20,339.69 2096.03,337.68 2084.54,335.88 2070.69,333.70 2058.61,331.77 2046.66,329.89 2033.38,327.78 2018.82,325.42 2004.86,323.20 1992.41,321.17 1989.40,320.67" type="shoulder"/>
    </edge>
    <edge id="107.0" from="node_113_start" to="junction_7" priority="-1" type="town" shape="4292.24,705.24 4284.27,703.81 4264.92,700.30 4243.47,696.41 4221.83,692.46 4203.75,689.16 4188.12,686.50 4178.99,684.94 4074.18,663.05 4074.35,662.15">
        <lane id="107.0_0" index="0" speed="13.89" length="125.48" width="3.66" shape="4291.42,706.95 4283.94,705.61 4264.59,702.10 4243.14,698.21 4221.50,694.26 4203.43,690.96 4187.81,688.30 4178.65,686.74 4167.97,684.51"/>
    </edge>
    <edge id="108.0" from="junction_7" to="node_108_end" priority="-1" type="town" shape="3970.42,636.26 3968.28,635.92 3964.10,635.25 3959.71,634.55 3955.29,633.83 3950.68,633.11 3946.48,632.44 3941.94,631.70 3937.00,630.92 3931.93,630.09 3927.00,629.30 3920.96,628.34 3911.65,626.84 3901.31,625.18 3894.13,624.03 3886.67,622.83 3880.27,621.79 3873.92,620.78 3867.01,619.67 3866.52,619.59">