<?xml version='1.0' encoding='utf-8'?>
<edges>
    <edge id="101.0" from="node_101_start" to="node_101_end" numLanes="5" speed="13.89" type="town" shape="767705.20,3295075.35 767704.14,3295075.18 767704.14,3295075.18 767697.76,3295074.14 767697.76,3295074.14 767691.65,3295073.17 767691.65,3295073.17 767688.09,3295072.57 767688.09,3295072.57 767682.17,3295071.64 767682.17,3295071.64 767676.16,3295070.67 767676.16,3295070.67 767669.60,3295069.62 767669.60,3295069.62 767664.46,3295068.79">
        <lane index="0" width="3.66" type="shoulder" disallow="all" />
        <lane index="1" width="3.66" />
        <lane index="2" width="3.66" />
        <lane index="3" width="3.66" />
        <lane index="4" width="3.66" type="shoulder" disallow="all" />
    </edge>
    <edge id="104.0" from="node_104_start" to="node_104_end" numLanes="5" speed="13.89" type="town" shape="765559.33,3294731.48 765554.70,3294730.73 765554.70,3294730.73 765551.15,3294730.16">
        <lane index="0" width="3.66" type="shoulder" disallow="all" />
        <lane index="1" width="3.66" />
        <lane index="2" width="3.66" />
        <lane index="3" width="3.66" />
        <lane index="4" width="3.66" type="shoulder" disallow="all" />
    </edge>
    <edge id="105.0" from="node_105_start" to="junction_8" numLanes="1" speed="13.89" type="town" shape="767622.75,3295090.84 767604.33,3295086.82 767604.33,3295086.82 767571.57,3295079.59 767571.57,3295079.59 767548.80,3295074.48 767548.80,3295074.48 767535.55,3295071.52 767535.55,3295071.52 767515.44,3295067.16 767515.44,3295067.16 767494.56,3295062.80 767494.56,3295062.80 767493.72,3295062.63">
        <lane index="0" width="3.66" />
    </edge>
    <edge id="106.0" from="node_106_start" to="node_106_end" numLanes="5" speed="13.89" type="town" shape="765185.20,3294671.52 765175.12,3294669.89 765175.12,3294669.89 765160.23,3294667.51 765160.23,3294667.51 765148.06,3294665.50 765148.06,3294665.50 765136.56,3294663.70 765136.56,3294663.70 765122.72,3294661.52 765122.72,3294661.52 765110.64,3294659.59 765110.64,3294659.59 765098.69,3294657.71 765098.69,3294657.71 765085.41,3294655.60 765085.41,3294655.60 765070.85,3294653.24 765070.85,3294653.24 765056.89,3294651.02 765056.89,3294651.02 765044.45,3294648.99 765044.45,3294648.99 765041.30,3294648.47">
        <lane index="0" width="3.66" type="shoulder" disallow="all" />
        <lane index="1" width="3.66" />
        <lane index="2" width="3.66" />
        <lane index="3" width="3.66" />
        <lane index="4" width="3.66" type="shoulder" disallow="all" />
    </edge>
    <edge id="107.0" from="node_113_start" to="junction_7" numLanes="1" speed="13.89" type="town" shape="767343.98,3295034.87 767336.01,3295033.44 767336.01,3295033.44 767316.66,3295029.93 767316.66,3295029.93 767295.21,3295026.04 767295.21,3295026.04 767273.57,3295022.09 767273.57,3295022.09 767255.49,3295018.79 767255.49,3295018.79 767239.86,3295016.13 767239.86,3295016.13 767230.73,3295014.57">
        <lane index="0" width="3.66" />
    </edge>
    <edge id="108.0" from="junction_7" to="node_108_end" numLanes="5" speed="13.89" type="town" shape="767022.16,3294965.89 767020.02,3294965.55 767020.02,3294965.55 767015.84,3294964.88 767015.84,3294964.88 767011.45,3294964.18 767011.45,3294964.18 767007.03,3294963.46 767007.03,3294963.46 767002.42,3294962.74 767002.42,3294962.74 766998.22,3294962.07 766998.22,3294962.07 766993.68,3294961.33 766993.68,3294961.33 766988.74,3294960.55 766988.74,3294960.55 766983.67,3294959.72 766983.67,3294959.72 766978.74,3294958.93 766978.74,3294958.93 766972.70,3294957.97 766972.70,3294957.97 766963.39,3294956.47 766963.39,3294956.47 766953.05,3294954.81 766953.05,3294954.81 766945.87,3294953.66 766945.87,3294953.66 766938.41,3294952.46 766938.41,3294952.46 766932.01,3294951.42 766932.01,3294951.42 766925.66,3294950.41 766925.66,3294950.41 766918.45,3294949.25 766918.45,3294949.25 766918.26,3294949.22">
        <lane index="0" width="3.66" type="shoulder" disallow="all" />
        <lane index="1" width="3.66" />
        <lane index="2" width="3.66" />
        <lane index="3" width="3.66" />
        <lane index="4" width="3.66" type="shoulder" disallow="all" />
    </edge>
    <edge id="109.0" from="junction_8" to="junction_69" numLanes="6" speed="13.89" type="town" shape="767422.36,3295030.00 767415.75,3295028.96 767415.75,3295028.96 767409.41,3295027.95 767409.41,3295027.95 767401.83,3295026.73 767401.83,3295026.73 767394.70,3295025.60 767394.70,3295025.60 767386.61,3295024.32 767386.61,3295024.32 767379.08,3295023.09 767379.08,3295023.09 767371.77,3295021.92 767371.77,3295021.92 767365.25,3295020.85 767365.25,3295020.85 767358.82,3295019.83 767358.82,3295019.83 767352.87,3295018.87 767352.87,3295018.87 767347.43,3295018.03 767347.43,3295018.03 767346.52,3295017.88">
        <lane index="0" width="3.66" />
        <lane index="1" width="3.66" type="shoulder" disallow="all" />
        <lane index="2" width="3.66" />
        <lane index="3" width="3.66" />
        <lane index="4" width="3.66" />
        <lane index="5" width="3.66" type="shoulder" disallow="all" />
    </edge>
    <edge id="112.0" from="node_112_start" to="junction_70" numLanes="5" speed="13.89" type="town" shape="766086.87,3294816.03 766083.70,3294815.52 766083.70,3294815.52 766076.63,3294814.39">
        <lane index="0" width="3.66" />
        <lane index="1" width="3.66" />
        <lane index="2" width="3.66" />
        <lane index="3" width="3.66" />
        <lane index="4" width="3.66" type="shoulder" disallow="all" />
    </edge>
    <edge id="113.0" from="node_113_start" to="junction_7" numLanes="4" speed="13.89" type="town" shape="767346.52,3295017.88 767342.00,3295017.15 767342.00,3295017.15 767336.96,3295016.34 767336.96,3295016.34 767330.94,3295015.36 767330.94,3295015.36 767325.24,3295014.47 767325.24,3295014.47 767319.46,3295013.52 767319.46,3295013.52 767313.32,3295012.53 767313.32,3295012.53 767307.12,3295011.53 767307.12,3295011.53 767300.59,3295010.50 767300.59,3295010.50 767294.05,3295009.47 767294.05,3295009.47 767287.44,3295008.40 767287.44,3295008.40 767282.15,3295007.57 767282.15,3295007.57 767276.20,3295006.60 767276.20,3295006.60 767269.88,3295005.59 767269.88,3295005.59 767263.45,3295004.57 767263.45,3295004.57 767257.51,3295003.61 767257.51,3295003.61 767251.49,3295002.64 767251.49,3295002.64 767245.55,3295001.69 767245.55,3295001.69 767239.47,3295000.73 767239.47,3295000.73 767233.48,3294999.75 767233.48,3294999.75 767232.76,3294999.64">
        <lane index="0" width="3.66" />
        <lane index="1" width="3.66" />
        <lane index="2" width="3.66" />
        <lane index="3" width="3.66" type="shoulder" disallow="all" />
    </edge>
    <edge id="114.0" from="junction_70" to="node_114_end" numLanes="1" speed="13.89" type="town" shape="766021.20,3294824.28 766007.60,3294823.01 766007.60,3294823.01 765991.90,3294821.45 765991.90,3294821.45 765985.49,3294820.84">
        <lane index="0" width="3.66" />
    </edge>
    <edge id="53.0" from="node_53_start" to="node_53_end" numLanes="5" speed="13.89" type="town" shape="771306.28,3295851.82 771278.36,3295845.34">
        <lane index="0" width="3.66" type="shoulder" disallow="all" />
        <lane index="1" width="3.66" />
        <lane index="2" width="3.66" />
        <lane index="3" width="3.66" />
        <lane index="4" width="3.66" type="shoulder" disallow="all" />
    </edge>
    <edge id="54.0" from="node_54_start" to="node_54_end" numLanes="5" speed="13.89" type="town" shape="769896.58,3295535.48 769861.10,3295527.73 769861.10,3295527.73 769782.49,3295510.34 769782.49,3295510.34 769746.07,3295502.32 769746.07,3295502.32 769673.71,3295486.35 769673.71,3295486.35 769579.16,3295465.44 769579.16,3295465.44 769514.20,3295451.04 769514.20,3295451.04 769432.01,3295432.95 769432.01,3295432.95 769372.93,3295419.91 769372.93,3295419.91 769219.80,3295386.08 769219.80,3295386.08 769044.61,3295347.50 769044.61,3295347.50 768840.57,3295302.54 768840.57,3295302.54 768746.45,3295281.75 768746.45,3295281.75 768525.10,3295232.92 768525.10,3295232.92 768397.63,3295204.83 768397.63,3295204.83 768231.27,3295168.14 768231.27,3295168.14 768227.30,3295167.19 768227.30,3295167.19 768210.52,3295163.53 768210.52,3295163.53 768198.48,3295160.99 768198.48,3295160.99 768181.42,3295157.38 768181.42,3295157.38 768164.29,3295153.89 768164.29,3295153.89 768150.38,3295151.08 768150.38,3295151.08 768138.04,3295148.55 768138.04,3295148.55 768126.63,3295146.30 768126.63,3295146.30 768115.94,3295144.21 768115.94,3295144.21 768105.11,3295142.13 768105.11,3295142.13 768092.65,3295139.74 768092.65,3295139.74 768079.54,3295137.26 768079.54,3295137.26 768065.54,3295134.66 768065.54,3295134.66 768047.69,3295131.36 768047.69,3295131.36 768030.29,3295128.28 768030.29,3295128.28 768011.76,3295124.97 768011.76,3295124.97 767998.31,3295122.72 767998.31,3295122.72 767981.13,3295119.77 767981.13,3295119.77 767963.91,3295116.93 767963.91,3295116.93 767950.29,3295114.74 767950.29,3295114.74 767939.20,3295112.98 767939.20,3295112.98 767928.00,3295111.15 767928.00,3295111.15 767920.20,3295109.91 767920.20,3295109.91 767913.80,3295108.87 767913.80,3295108.87 767907.97,3295107.88 767907.97,3295107.88 767900.80,3295106.77 767900.80,3295106.77 767893.81,3295105.61 767893.81,3295105.61 767883.18,3295103.90 767883.18,3295103.90 767871.97,3295102.11 767871.97,3295102.11 767858.99,3295100.01 767858.99,3295100.01 767848.08,3295098.30 767848.08,3295098.30 767840.82,3295097.12 767840.82,3295097.12 767831.08,3295095.53 767831.08,3295095.53 767822.20,3295094.10 767822.20,3295094.10 767815.64,3295093.03 767815.64,3295093.03 767809.95,3295092.10 767809.95,3295092.10 767804.74,3295091.29 767804.74,3295091.29 767800.72,3295090.63 767800.72,3295090.63 767796.73,3295090.00 767796.73,3295090.00 767793.22,3295089.43 767793.22,3295089.43 767787.25,3295088.47 767787.25,3295088.47 767780.59,3295087.40 767780.59,3295087.40 767772.47,3295086.10 767772.47,3295086.10 767765.53,3295084.98 767765.53,3295084.98 767757.13,3295083.65 767757.13,3295083.65 767749.82,3295082.47 767749.82,3295082.47 767742.61,3295081.31 767742.61,3295081.31 767736.70,3295080.36 767736.70,3295080.36 767729.42,3295079.20 767729.42,3295079.20 767722.67,3295078.15 767722.67,3295078.15 767716.64,3295077.16 767716.64,3295077.16 767713.39,3295076.65">
        <lane index="0" width="3.66" type="shoulder" disallow="all" />
        <lane index="1" width="3.66" />
        <lane index="2" width="3.66" />
        <lane index="3" width="3.66" />
        <lane index="4" width="3.66" type="shoulder" disallow="all" />
    </edge>
    <edge id="55.0" from="junction_123" to="node_55_end" numLanes="4" speed="13.89" type="town" shape="769987.37,3295555.48 769964.32,3295550.38 769964.32,3295550.38 769931.41,3295543.15">
        <lane index="0" width="3.66" />
        <lane index="1" width="3.66" />
        <lane index="2" width="3.66" />
        <lane index="3" width="3.66" type="shoulder" disallow="all" />
    </edge>
    <edge id="56.0" from="node_56_start" to="node_56_end" numLanes="1" speed="13.89" type="town" shape="769926.70,3295561.03 769892.09,3295555.82">
        <lane index="0" width="3.66" />
    </edge>
    <edge id="57.0" from="j_merge_end_5" to="node_57_end" numLanes="5" speed="13.89" type="town" shape="770757.95,3295725.47 770699.01,3295712.43 770699.01,3295712.43 770617.63,3295694.52 770617.63,3295694.52 770533.32,3295675.90 770533.32,3295675.90 770464.87,3295660.77 770464.87,3295660.77 770388.23,3295643.83 770388.23,3295643.83 770322.24,3295629.34">
        <lane index="0" width="3.66" type="shoulder" disallow="all" />
        <lane index="1" width="3.66" />
        <lane index="2" width="3.66" />
        <lane index="3" width="3.66" />
        <lane index="4" width="3.66" type="shoulder" disallow="all" />
    </edge>
    <edge id="58.0" from="node_58_start" to="node_58_end" numLanes="5" speed="13.89" type="town" shape="772701.04,3295680.01 772686.25,3295684.73 772686.25,3295684.73 772671.17,3295689.46 772671.17,3295689.46 772654.23,3295694.94 772654.23,3295694.94 772649.19,3295696.53 772649.19,3295696.53 772635.43,3295700.87 772635.43,3295700.87 772619.16,3295706.02 772619.16,3295706.02 772586.19,3295716.52 772586.19,3295716.52 772562.92,3295723.84 772562.92,3295723.84 772438.61,3295763.30 772438.61,3295763.30 772362.43,3295787.36">
        <lane index="0" width="3.66" type="shoulder" disallow="all" />
        <lane index="1" width="3.66" />
        <lane index="2" width="3.66" />
        <lane index="3" width="3.66" />
        <lane index="4" width="3.66" type="shoulder" disallow="all" />
    </edge>
    <edge id="59.0" from="node_57_end" to="node_59_end" numLanes="5" speed="13.89" type="town" shape="770322.24,3295629.34 770271.58,3295618.14 770271.58,3295618.14 770218.60,3295606.52 770218.60,3295606.52 770191.72,3295600.58">
        <lane index="0" width="3.66" type="shoulder" disallow="all" />
        <lane index="1" width="3.66" />
        <lane index="2" width="3.66" />
        <lane index="3" width="3.66" />
        <lane index="4" width="3.66" type="shoulder" disallow="all" />
    </edge>
    <edge id="60.0" from="node_60_start" to="node_60_end" numLanes="5" speed="13.89" type="town" shape="771661.62,3295918.53 771642.37,3295917.15 771642.37,3295917.15 771604.22,3295913.27">
        <lane index="0" width="3.66" type="shoulder" disallow="all" />
        <lane index="1" width="3.66" />
        <lane index="2" width="3.66" />
        <lane index="3" width="3.66" />
        <lane index="4" width="3.66" type="shoulder" disallow="all" />
    </edge>
    <edge id="64.0" from="node_64_start" to="node_64_end" numLanes="5" speed="13.89" type="town" shape="772122.08,3295863.57 772117.65,3295864.99 772117.65,3295864.99 772081.62,3295875.74 772081.62,3295875.74 772049.76,3295884.31 772049.76,3295884.31 772032.71,3295888.55 772032.71,3295888.55 772001.60,3295895.50">
        <lane index="0" width="3.66" type="shoulder" disallow="all" />
        <lane index="1" width="3.66" />
        <lane index="2" width="3.66" />
        <lane index="3" width="3.66" />
        <lane index="4" width="3.66" type="shoulder" disallow="all" />
    </edge>
    <edge id="65.0" from="node_60_end" to="node_53_start" numLanes="5" speed="13.89" type="town" shape="771604.22,3295913.27 771569.19,3295908.60 771569.19,3295908.60 771537.96,3295903.58 771537.96,3295903.58 771505.54,3295897.47 771505.54,3295897.47 771466.72,3295888.98 771466.72,3295888.98 771435.80,3295881.85 771435.80,3295881.85 771386.47,3295870.35 771386.47,3295870.35 771334.70,3295858.36 771334.70,3295858.36 771306.28,3295851.82">
        <lane index="0" width="3.66" type="shoulder" disallow="all" />
        <lane index="1" width="3.66" />
        <lane index="2" width="3.66" />
        <lane index="3" width="3.66" />
        <lane index="4" width="3.66" type="shoulder" disallow="all" />
    </edge>
    <edge id="66.0" from="node_66_start" to="node_64_start" numLanes="5" speed="13.89" type="town" shape="772233.24,3295828.32 772206.00,3295836.98 772206.00,3295836.98 772144.07,3295856.53 772144.07,3295856.53 772122.08,3295863.57">
        <lane index="0" width="3.66" type="shoulder" disallow="all" />
        <lane index="1" width="3.66" />
        <lane index="2" width="3.66" />
        <lane index="3" width="3.66" />
        <lane index="4" width="3.66" type="shoulder" disallow="all" />
    </edge>
    <edge id="67.0" from="node_56_end" to="node_67_end" numLanes="1" speed="13.89" type="town" shape="769892.09,3295555.82 769879.58,3295553.93 769879.58,3295553.93 769865.20,3295551.68 769865.20,3295551.68 769856.45,3295550.23 769856.45,3295550.23 769851.70,3295549.45 769851.70,3295549.45 769832.01,3295546.09 769832.01,3295546.09 769817.71,3295543.55 769817.71,3295543.55 769801.40,3295540.55 769801.40,3295540.55 769784.29,3295537.44 769784.29,3295537.44 769766.73,3295534.25 769766.73,3295534.25 769747.02,3295530.57 769747.02,3295530.57 769739.54,3295529.20">
        <lane index="0" width="3.66" />
    </edge>
    <edge id="69.0" from="node_55_end" to="node_54_start" numLanes="5" speed="13.89" type="town" shape="769931.41,3295543.15 769896.58,3295535.48">
        <lane index="0" width="3.66" type="shoulder" disallow="all" />
        <lane index="1" width="3.66" />
        <lane index="2" width="3.66" />
        <lane index="3" width="3.66" />
        <lane index="4" width="3.66" type="shoulder" disallow="all" />
    </edge>
    <edge id="71.0" from="node_53_end" to="node_71_end" numLanes="5" speed="13.89" type="town" shape="771278.36,3295845.34 771234.46,3295835.17">
        <lane index="0" width="3.66" type="shoulder" disallow="all" />
        <lane index="1" width="3.66" />
        <lane index="2" width="3.66" />
        <lane index="3" width="3.66" />
        <lane index="4" width="3.66" type="shoulder" disallow="all" />
    </edge>
    <edge id="72.0" from="node_64_end" to="node_60_start" numLanes="5" speed="13.89" type="town" shape="772001.60,3295895.50 771979.76,3295899.86 771979.76,3295899.86 771949.93,3295905.23 771949.93,3295905.23 771913.34,3295910.72 771913.34,3295910.72 771885.08,3295914.24 771885.08,3295914.24 771861.98,3295916.59 771861.98,3295916.59 771834.22,3295918.87 771834.22,3295918.87 771807.12,3295920.42 771807.12,3295920.42 771774.78,3295921.55 771774.78,3295921.55 771720.30,3295921.46 771720.30,3295921.46 771681.96,3295919.99 771681.96,3295919.99 771661.62,3295918.53">
        <lane index="0" width="3.66" type="shoulder" disallow="all" />
        <lane index="1" width="3.66" />
        <lane index="2" width="3.66" />
        <lane index="3" width="3.66" />
        <lane index="4" width="3.66" type="shoulder" disallow="all" />
    </edge>
    <edge id="73.0" from="node_58_end" to="node_66_start" numLanes="5" speed="13.89" type="town" shape="772362.43,3295787.36 772334.12,3295796.35 772334.12,3295796.35 772305.61,3295805.44 772305.61,3295805.44 772276.36,3295814.74 772276.36,3295814.74 772246.26,3295824.18 772246.26,3295824.18 772233.24,3295828.32">
        <lane index="0" width="3.66" type="shoulder" disallow="all" />
        <lane index="1" width="3.66" />
        <lane index="2" width="3.66" />
        <lane index="3" width="3.66" />
        <lane index="4" width="3.66" type="shoulder" disallow="all" />
    </edge>
    <edge id="75.0" from="node_75_start" to="node_75_end" numLanes="1" speed="13.89" type="town" shape="771273.59,3295865.06 771230.00,3295853.06">
        <lane index="0" width="3.66" />
    </edge>
    <edge id="78.0" from="node_78_start" to="node_75_start" numLanes="1" speed="13.89" type="town" shape="771300.88,3295872.58 771273.59,3295865.06">
        <lane index="0" width="3.66" />
    </edge>
    <edge id="783.0" from="node_91_end" to="node_112_start" numLanes="1" speed="13.89" type="town" shape="766161.91,3294839.61 766156.92,3294838.94 766156.92,3294838.94 766149.15,3294838.03 766149.15,3294838.03 766098.84,3294832.64 766098.84,3294832.64 766090.07,3294831.64 766090.07,3294831.64 766085.08,3294830.99">
        <lane index="0" width="3.66" />
    </edge>
    <edge id="79.0" from="node_79_start" to="node_79_end" numLanes="1" speed="13.89" type="town" shape="772706.87,3295700.14 772687.24,3295707.90 772687.24,3295707.90 772655.69,3295720.36 772655.69,3295720.36 772582.11,3295749.49 772582.11,3295749.49 772500.66,3295781.67">
        <lane index="0" width="3.66" />
    </edge>
    <edge id="80.0" from="node_80_start" to="node_78_start" numLanes="1" speed="13.89" type="town" shape="771451.94,3295914.55 771416.18,3295904.49 771416.18,3295904.49 771369.49,3295891.52 771369.49,3295891.52 771314.21,3295876.25 771314.21,3295876.25 771300.88,3295872.58">
        <lane index="0" width="3.66" />
    </edge>
    <edge id="81.0" from="node_54_end" to="node_101_start" numLanes="5" speed="13.89" type="town" shape="767713.39,3295076.65 767705.20,3295075.35">
        <lane index="0" width="3.66" type="shoulder" disallow="all" />
        <lane index="1" width="3.66" />
        <lane index="2" width="3.66" />
        <lane index="3" width="3.66" />
        <lane index="4" width="3.66" type="shoulder" disallow="all" />
    </edge>
    <edge id="82.0" from="node_82_start" to="node_82_end" numLanes="5" speed="13.89" type="town" shape="765508.85,3294723.40 765495.85,3294721.28 765495.85,3294721.28 765481.56,3294718.98 765481.56,3294718.98 765468.10,3294716.85 765468.10,3294716.85 765455.17,3294714.75 765455.17,3294714.75 765441.41,3294712.54 765441.41,3294712.54 765426.30,3294710.14 765426.30,3294710.14 765410.87,3294707.66 765410.87,3294707.66 765397.80,3294705.57 765397.80,3294705.57 765379.78,3294702.64 765379.78,3294702.64 765365.80,3294700.46 765365.80,3294700.46 765353.36,3294698.46 765353.36,3294698.46 765338.43,3294696.10 765338.43,3294696.10 765325.62,3294694.00 765325.62,3294694.00 765313.98,3294692.14 765313.98,3294692.14 765301.87,3294690.20 765301.87,3294690.20 765289.05,3294688.15 765289.05,3294688.15 765273.86,3294685.74 765273.86,3294685.74 765259.28,3294683.39 765259.28,3294683.39 765245.58,3294681.22 765245.58,3294681.22 765230.95,3294678.89 765230.95,3294678.89 765220.47,3294677.21 765220.47,3294677.21 765204.63,3294674.65 765204.63,3294674.65 765193.27,3294672.82">
        <lane index="0" width="3.66" type="shoulder" disallow="all" />
        <lane index="1" width="3.66" />
        <lane index="2" width="3.66" />
        <lane index="3" width="3.66" />
        <lane index="4" width="3.66" type="shoulder" disallow="all" />
    </edge>
    <edge id="84.0" from="node_84_start" to="node_84_end" numLanes="5" speed="13.89" type="town" shape="766870.63,3294941.59 766865.89,3294940.84 766865.89,3294940.84 766859.57,3294939.85 766859.57,3294939.85 766852.83,3294938.80 766852.83,3294938.80 766846.58,3294937.78 766846.58,3294937.78 766840.70,3294936.86 766840.70,3294936.86 766835.43,3294935.99 766835.43,3294935.99 766830.84,3294935.26 766830.84,3294935.26 766825.61,3294934.43 766825.61,3294934.43 766820.73,3294933.65 766820.73,3294933.65 766815.24,3294932.77 766815.24,3294932.77 766809.87,3294931.90 766809.87,3294931.90 766803.53,3294930.86 766803.53,3294930.86 766798.45,3294930.04 766798.45,3294930.04 766793.02,3294929.17 766793.02,3294929.17 766785.07,3294927.90 766785.07,3294927.90 766777.19,3294926.65 766777.19,3294926.65 766767.21,3294925.04 766767.21,3294925.04 766754.29,3294923.03 766754.29,3294923.03 766744.27,3294921.32 766744.27,3294921.32 766732.72,3294919.51 766732.72,3294919.51 766721.65,3294917.74 766721.65,3294917.74 766708.62,3294915.63 766708.62,3294915.63 766695.64,3294913.59 766695.64,3294913.59 766681.91,3294911.43 766681.91,3294911.43 766669.41,3294909.44 766669.41,3294909.44 766654.29,3294906.99 766654.29,3294906.99 766641.74,3294904.96 766641.74,3294904.96 766628.61,3294902.86 766628.61,3294902.86 766615.82,3294900.79 766615.82,3294900.79 766602.99,3294898.73 766602.99,3294898.73 766590.06,3294896.68 766590.06,3294896.68 766581.11,3294895.23 766581.11,3294895.23 766573.93,3294894.05 766573.93,3294894.05 766560.44,3294891.91 766560.44,3294891.91 766543.93,3294889.24 766543.93,3294889.24 766527.53,3294886.64 766527.53,3294886.64 766510.87,3294883.98 766510.87,3294883.98 766493.84,3294881.27 766493.84,3294881.27 766480.57,3294879.14 766480.57,3294879.14 766463.87,3294876.41 766463.87,3294876.41 766447.61,3294873.83 766447.61,3294873.83 766430.60,3294871.11 766430.60,3294871.11 766409.47,3294867.69 766409.47,3294867.69 766390.56,3294864.67 766390.56,3294864.67 766375.20,3294862.21 766375.20,3294862.21 766357.42,3294859.34 766357.42,3294859.34 766338.88,3294856.37 766338.88,3294856.37 766322.83,3294853.83 766322.83,3294853.83 766308.23,3294851.48 766308.23,3294851.48 766291.90,3294848.89 766291.90,3294848.89 766277.82,3294846.60 766277.82,3294846.60 766266.88,3294844.89 766266.88,3294844.89 766253.12,3294842.66 766253.12,3294842.66 766236.60,3294840.05 766236.60,3294840.05 766223.62,3294837.95 766223.62,3294837.95 766207.20,3294835.30 766207.20,3294835.30 766193.43,3294833.09 766193.43,3294833.09 766176.56,3294830.42">
        <lane index="0" width="3.66" type="shoulder" disallow="all" />
        <lane index="1" width="3.66" />
        <lane index="2" width="3.66" />
        <lane index="3" width="3.66" />
        <lane index="4" width="3.66" type="shoulder" disallow="all" />
    </edge>
    <edge id="846.0" from="node_71_end" to="j_merge_start_5" numLanes="4" speed="13.89" type="town" shape="771234.46,3295835.17 771180.89,3295822.82 771180.89,3295822.82 771121.70,3295809.06 771121.70,3295809.06 771078.78,3295799.13">
        <lane index="0" width="3.66" />
        <lane index="1" width="3.66" />
        <lane index="2" width="3.66" />
        <lane index="3" width="3.66" type="shoulder" disallow="all" />
    </edge>
    <edge id="849.0" from="node_75_end" to="j_merge_start_5" numLanes="1" speed="13.89" type="town" shape="771230.00,3295853.06 771210.57,3295848.02 771210.57,3295848.02 771164.66,3295836.32 771164.66,3295836.32 771075.15,3295813.69">
        <lane index="0" width="3.66" />
    </edge>
    <edge id="85.0" from="node_104_end" to="node_82_start" numLanes="5" speed="13.89" type="town" shape="765551.15,3294730.16 765541.01,3294728.51 765541.01,3294728.51 765525.22,3294725.99 765525.22,3294725.99 765510.07,3294723.60 765510.07,3294723.60 765508.85,3294723.40">
        <lane index="0" width="3.66" type="shoulder" disallow="all" />
        <lane index="1" width="3.66" />
        <lane index="2" width="3.66" />
        <lane index="3" width="3.66" />
        <lane index="4" width="3.66" type="shoulder" disallow="all" />
    </edge>
    <edge id="850.0" from="node_59_end" to="junction_123" numLanes="5" speed="13.89" type="town" shape="770191.72,3295600.58 770157.04,3295592.93 770157.04,3295592.93 770130.28,3295587.10 770130.28,3295587.10 770110.27,3295582.65">
        <lane index="0" width="3.66" type="shoulder" disallow="all" />
        <lane index="1" width="3.66" />
        <lane index="2" width="3.66" />
        <lane index="3" width="3.66" />
        <lane index="4" width="3.66" type="shoulder" disallow="all" />
    </edge>
    <edge id="853.0" from="junction_123" to="node_56_start" numLanes="1" speed="13.89" type="town" shape="769984.08,3295570.12 769976.38,3295568.78 769976.38,3295568.78 769964.07,3295566.79 769964.07,3295566.79 769926.70,3295561.03">
        <lane index="0" width="3.66" />
    </edge>