<?xml version='1.0' encoding='utf-8'?>
<nodes>
    <node id="node_101_start" x="767705.2048911547" y="3295075.3472868097" type="priority" />
    <node id="node_101_end" x="767664.4587974041" y="3295068.791866886" type="priority" />
    <node id="node_104_start" x="765559.3347757297" y="3294731.477681463" type="priority" />
    <node id="node_104_end" x="765551.1499114453" y="3294730.1578268507" type="priority" />
    <node id="node_105_start" x="767622.745799907" y="3295090.8360105637" type="priority" />
    <node id="node_106_start" x="765185.2033123495" y="3294671.5157127962" type="priority" />
    <node id="node_106_end" x="765041.2966880284" y="3294648.4675260657" type="priority" />
    <node id="node_107_start" x="767343.9783286534" y="3295034.867428409" type="priority" />
    <node id="node_108_end" x="766918.2634849041" y="3294949.2186247" type="priority" />
    <node id="node_112_start" x="766086.8728599034" y="3294816.0263639563" type="priority" />
    <node id="node_113_start" x="767346.5193442784" y="3295017.878536808" type="priority" />
    <node id="node_114_end" x="765985.4885011443" y="3294820.838680307" type="priority" />
    <node id="node_53_start" x="771306.2781301846" y="3295851.8189076805" type="priority" />
    <node id="node_53_end" x="771278.3621889962" y="3295845.339871481" type="priority" />
    <node id="node_54_start" x="769896.5798884274" y="3295535.476575157" type="priority" />
    <node id="node_54_end" x="767713.3923911538" y="3295076.6462370027" type="priority" />
    <node id="node_55_end" x="769931.4107169592" y="3295543.1476102364" type="priority" />
    <node id="node_56_start" x="769926.6994742234" y="3295561.0316893947" type="priority" />
    <node id="node_56_end" x="769892.0885346738" y="3295555.818898361" type="priority" />
    <node id="node_57_end" x="770322.2427482095" y="3295629.335491645" type="priority" />
    <node id="node_58_start" x="772701.044312669" y="3295680.0115609006" type="priority" />
    <node id="node_58_end" x="772362.4287145797" y="3295787.364947025" type="priority" />
    <node id="node_59_end" x="770191.7220178999" y="3295600.5824873135" type="priority" />
    <node id="node_60_start" x="771661.6200707634" y="3295918.5326910485" type="priority" />
    <node id="node_60_end" x="771604.2164979536" y="3295913.2715597" type="priority" />
    <node id="node_64_start" x="772122.0789145916" y="3295863.5726286066" type="priority" />
    <node id="node_64_end" x="772001.5951602869" y="3295895.496126501" type="priority" />
    <node id="node_66_start" x="772233.2351645888" y="3295828.3188444264" type="priority" />
    <node id="node_67_end" x="769739.5404318952" y="3295529.2009550226" type="priority" />
    <node id="node_71_end" x="771234.4623528803" y="3295835.168102849" type="priority" />
    <node id="node_75_start" x="771273.5876426187" y="3295865.063778508" type="priority" />
    <node id="node_75_end" x="771229.9953421445" y="3295853.0559354923" type="priority" />
    <node id="node_78_start" x="771300.8801687439" y="3295872.5830960143" type="priority" />
    <node id="node_783_start" x="766161.9058758819" y="3294839.610248501" type="priority" />
    <node id="node_783_end" x="766085.0807724255" y="3294830.989710905" type="priority" />
    <node id="node_79_start" x="772706.871861059" y="3295700.13749339" type="priority" />
    <node id="node_79_end" x="772500.6560167755" y="3295781.665386784" type="priority" />
    <node id="node_80_start" x="771451.9371451824" y="3295914.546841134" type="priority" />
    <node id="node_82_start" x="765508.8533286529" y="3294723.399410832" type="priority" />
    <node id="node_82_end" x="765193.2693442791" y="3294672.8161588795" type="priority" />
    <node id="node_84_start" x="766870.6274640766" y="3294941.594637328" type="priority" />
    <node id="node_84_end" x="766176.561147402" y="3294830.4225025596" type="priority" />
    <node id="node_86_end" x="763206.2754188534" y="3294354.403458762" type="priority" />
    <node id="node_87_end" x="765802.1374624457" y="3294798.9793669465" type="priority" />
    <node id="node_89_start" x="765987.7346053694" y="3294800.120414308" type="priority" />
    <node id="node_91_end" x="766163.3825489935" y="3294828.2501939964" type="priority" />
    <node id="node_94_end" x="766910.2146567795" y="3294947.9271207927" type="priority" />
    <node id="junction_63" x="0.0" y="0.0" type="priority" />
    <node id="junction_1" x="0.0" y="0.0" type="priority" />
    <node id="junction_2" x="0.0" y="0.0" type="priority" />
    <node id="junction_9" x="0.0" y="0.0" type="priority" />
    <node id="junction_64" x="0.0" y="0.0" type="priority" />
    <node id="junction_10" x="0.0" y="0.0" type="priority" />
    <node id="junction_73" x="0.0" y="0.0" type="priority" />
    <node id="junction_11" x="0.0" y="0.0" type="priority" />
    <node id="junction_74" x="0.0" y="0.0" type="priority" />
    <node id="junction_77" x="0.0" y="0.0" type="priority" />
    <node id="junction_75" x="0.0" y="0.0" type="priority" />
    <node id="junction_3" x="0.0" y="0.0" type="priority" />
    <node id="junction_16" x="0.0" y="0.0" type="priority" />
    <node id="junction_78" x="0.0" y="0.0" type="priority" />
    <node id="junction_79" x="0.0" y="0.0" type="priority" />
    <node id="junction_17" x="0.0" y="0.0" type="priority" />
    <node id="junction_19" x="0.0" y="0.0" type="priority" />
    <node id="junction_18" x="0.0" y="0.0" type="priority" />
    <node id="junction_76" x="0.0" y="0.0" type="priority" />
    <node id="junction_12" x="0.0" y="0.0" type="priority" />
    <node id="junction_14" x="0.0" y="0.0" type="priority" />
    <node id="junction_84" x="0.0" y="0.0" type="priority" />
    <node id="junction_65" x="0.0" y="0.0" type="priority" />
    <node id="junction_85" x="0.0" y="0.0" type="priority" />
    <node id="junction_55" x="0.0" y="0.0" type="priority" />
    <node id="junction_86" x="0.0" y="0.0" type="priority" />
    <node id="junction_81" x="0.0" y="0.0" type="priority" />
    <node id="junction_21" x="0.0" y="0.0" type="priority" />
    <node id="junction_82" x="0.0" y="0.0" type="priority" />
    <node id="junction_22" x="0.0" y="0.0" type="priority" />
    <node id="junction_80" x="0.0" y="0.0" type="priority" />
    <node id="junction_20" x="0.0" y="0.0" type="priority" />
    <node id="junction_4" x="0.0" y="0.0" type="priority" />
    <node id="junction_23" x="0.0" y="0.0" type="priority" />
    <node id="junction_83" x="0.0" y="0.0" type="priority" />
    <node id="junction_66" x="0.0" y="0.0" type="priority" />
    <node id="junction_24" x="0.0" y="0.0" type="priority" />
    <node id="junction_88" x="0.0" y="0.0" type="priority" />
    <node id="junction_26" x="0.0" y="0.0" type="priority" />
    <node id="junction_27" x="0.0" y="0.0" type="priority" />
    <node id="junction_28" x="0.0" y="0.0" type="priority" />
    <node id="junction_91" x="0.0" y="0.0" type="priority" />
    <node id="junction_29" x="0.0" y="0.0" type="priority" />
    <node id="junction_92" x="0.0" y="0.0" type="priority" />
    <node id="junction_30" x="0.0" y="0.0" type="priority" />
    <node id="junction_31" x="0.0" y="0.0" type="priority" />
    <node id="junction_32" x="0.0" y="0.0" type="priority" />
    <node id="junction_96" x="0.0" y="0.0" type="priority" />
    <node id="junction_33" x="0.0" y="0.0" type="priority" />
    <node id="junction_98" x="0.0" y="0.0" type="priority" />
    <node id="junction_99" x="0.0" y="0.0" type="priority" />
    <node id="junction_100" x="0.0" y="0.0" type="priority" />
    <node id="junction_37" x="0.0" y="0.0" type="priority" />
    <node id="junction_36" x="0.0" y="0.0" type="priority" />
    <node id="junction_35" x="0.0" y="0.0" type="priority" />
    <node id="junction_97" x="0.0" y="0.0" type="priority" />
    <node id="junction_87" x="0.0" y="0.0" type="priority" />
    <node id="junction_89" x="0.0" y="0.0" type="priority" />
    <node id="junction_90" x="0.0" y="0.0" type="priority" />
    <node id="junction_93" x="0.0" y="0.0" type="priority" />
    <node id="junction_94" x="0.0" y="0.0" type="priority" />
    <node id="junction_95" x="0.0" y="0.0" type="priority" />
    <node id="junction_34" x="0.0" y="0.0" type="priority" />
    <node id="junction_38" x="0.0" y="0.0" type="priority" />
    <node id="junction_39" x="0.0" y="0.0" type="priority" />
    <node id="junction_40" x="0.0" y="0.0" type="priority" />
    <node id="junction_102" x="0.0" y="0.0" type="priority" />
    <node id="junction_103" x="0.0" y="0.0" type="priority" />
    <node id="junction_106" x="0.0" y="0.0" type="priority" />
    <node id="junction_42" x="0.0" y="0.0" type="priority" />
    <node id="junction_104" x="0.0" y="0.0" type="priority" />
    <node id="junction_41" x="0.0" y="0.0" type="priority" />
    <node id="junction_43" x="0.0" y="0.0" type="priority" />
    <node id="junction_44" x="0.0" y="0.0" type="priority" />
    <node id="junction_45" x="0.0" y="0.0" type="priority" />
    <node id="junction_108" x="0.0" y="0.0" type="priority" />
    <node id="junction_46" x="0.0" y="0.0" type="priority" />
    <node id="junction_47" x="0.0" y="0.0" type="priority" />
    <node id="junction_49" x="0.0" y="0.0" type="priority" />
    <node id="junction_111" x="0.0" y="0.0" type="priority" />
    <node id="junction_112" x="0.0" y="0.0" type="priority" />
    <node id="junction_50" x="0.0" y="0.0" type="priority" />
    <node id="junction_113" x="0.0" y="0.0" type="priority" />
    <node id="junction_52" x="0.0" y="0.0" type="priority" />
    <node id="junction_51" x="0.0" y="0.0" type="priority" />
    <node id="junction_53" x="0.0" y="0.0" type="priority" />
    <node id="junction_116" x="0.0" y="0.0" type="priority" />
    <node id="junction_115" x="0.0" y="0.0" type="priority" />
    <node id="junction_54" x="0.0" y="0.0" type="priority" />
    <node id="junction_48" x="0.0" y="0.0" type="priority" />
    <node id="junction_117" x="0.0" y="0.0" type="priority" />
    <node id="junction_101" x="0.0" y="0.0" type="priority" />
    <node id="junction_105" x="0.0" y="0.0" type="priority" />
    <node id="junction_107" x="0.0" y="0.0" type="priority" />
    <node id="junction_109" x="0.0" y="0.0" type="priority" />
    <node id="junction_110" x="0.0" y="0.0" type="priority" />
    <node id="junction_114" x="0.0" y="0.0" type="priority" />
    <node id="junction_13" x="0.0" y="0.0" type="priority" />
    <node id="junction_15" x="0.0" y="0.0" type="priority" />
    <node id="junction_119" x="0.0" y="0.0" type="priority" />
    <node id="junction_120" x="0.0" y="0.0" type="priority" />
    <node id="junction_56" x="0.0" y="0.0" type="priority" />
    <node id="junction_118" x="0.0" y="0.0" type="priority" />
    <node id="junction_121" x="0.0" y="0.0" type="priority" />
    <node id="junction_61" x="0.0" y="0.0" type="priority" />
    <node id="junction_122" x="0.0" y="0.0" type="priority" />
    <node id="junction_62" x="0.0" y="0.0" type="priority" />
    <node id="junction_71" x="0.0" y="0.0" type="priority" />
    <node id="junction_57" x="0.0" y="0.0" type="priority" />
    <node id="junction_25" x="0.0" y="0.0" type="priority" />
    <node id="junction_124" x="0.0" y="0.0" type="priority" />
    <node id="junction_58" x="0.0" y="0.0" type="priority" />
    <node id="junction_59" x="0.0" y="0.0" type="priority" />
    <node id="junction_125" x="0.0" y="0.0" type="priority" />
    <node id="junction_126" x="0.0" y="0.0" type="priority" />
    <node id="junction_60" x="0.0" y="0.0" type="priority" />
    <node id="junction_72" x="0.0" y="0.0" type="priority" />
    <node id="junction_127" x="0.0" y="0.0" type="priority" />
    <node id="junction_68" x="772787.7077201927" y="3295660.446295294" type="priority" />
    <node id="junction_8" x="767471.0153251197" y="3295044.876154712" type="priority" />
    <node id="junction_69" x="767346.5193442784" y="3295017.878536808" type="priority" />
    <node id="junction_6" x="763051.7439536543" y="3294329.6306120036" type="priority" />
    <node id="j_merge_start_5" x="771078.7834044534" y="3295799.1339184004" type="priority" />
    <node id="j_merge_end_5" x="770757.952112343" y="3295725.465863832" type="priority" />
    <node id="junction_70" x="766040.4345902847" y="3294814.834361862" type="priority" />
    <node id="junction_123" x="770027.2401162604" y="3295569.4136833274" type="priority" />
    <node id="junction_7" x="767161.880021362" y="3294993.365678735" type="priority" />
</nodes>