<?xml version='1.0' encoding='utf-8'?>
<connections>
    <connection from="850.0" to="853.0" fromLane="1" toLane="0" />
    <connection from="850.0" to="55.0" fromLane="4" toLane="3" />
    <connection from="850.0" to="55.0" fromLane="3" toLane="2" />
    <connection from="850.0" to="55.0" fromLane="2" toLane="1" />
    <connection from="850.0" to="55.0" fromLane="1" toLane="0" />
    <connection from="849.0" to="merge_zone_5" fromLane="0" toLane="0" />
    <connection from="merge_zone_5" to="57.0" fromLane="0" toLane="4" dir="r" state="m" />
    <connection from="846.0" to="merge_zone_5" fromLane="3" toLane="4" />
    <connection from="846.0" to="merge_zone_5" fromLane="1" toLane="2" />
    <connection from="846.0" to="merge_zone_5" fromLane="2" toLane="3" />
    <connection from="846.0" to="merge_zone_5" fromLane="0" toLane="1" />
    <connection from="merge_zone_5" to="57.0" fromLane="4" toLane="4" />
    <connection from="merge_zone_5" to="57.0" fromLane="2" toLane="2" />
    <connection from="merge_zone_5" to="57.0" fromLane="3" toLane="3" />
    <connection from="merge_zone_5" to="57.0" fromLane="1" toLane="1" />
    <connection from="112.0" to="99.0" fromLane="4" toLane="4" />
    <connection from="112.0" to="99.0" fromLane="3" toLane="3" />
    <connection from="112.0" to="99.0" fromLane="2" toLane="2" />
    <connection from="112.0" to="99.0" fromLane="1" toLane="1" />
    <connection from="112.0" to="114.0" fromLane="0" toLane="0" />
    <connection from="96.0" to="109.0" fromLane="0" toLane="1" />
    <connection from="96.0" to="109.0" fromLane="4" toLane="5" />
    <connection from="96.0" to="109.0" fromLane="2" toLane="3" />
    <connection from="96.0" to="109.0" fromLane="1" toLane="2" />
    <connection from="96.0" to="109.0" fromLane="3" toLane="4" />
</connections>