<?xml version='1.0' encoding='utf-8'?>
<edges>
    <edge id="504.0" from="junction_101" to="node_504_end" numLanes="2" speed="13.89" type="town" shape="609637.62,3276189.91 609628.24,3276187.31 609628.24,3276187.31 609615.56,3276183.84 609615.56,3276183.84 609603.54,3276180.51 609603.54,3276180.51 609587.01,3276175.96">
        <lane index="0" width="3.66" />
        <lane index="1" width="3.66" />
    </edge>
    <edge id="507.0" from="node_504_end" to="junction_39" numLanes="3" speed="13.89" type="town" shape="609587.01,3276175.96 609551.40,3276166.23 609551.40,3276166.23 609526.02,3276159.30 609526.02,3276159.30 609474.11,3276145.10 609474.11,3276145.10 609427.76,3276132.43 609427.76,3276132.43 609385.13,3276120.73 609385.13,3276120.73 609360.17,3276113.96 609360.17,3276113.96 609331.00,3276105.86 609331.00,3276105.86 609312.56,3276100.84 609312.56,3276100.84 609299.04,3276097.18 609299.04,3276097.18 609277.96,3276091.41 609277.96,3276091.41 609240.93,3276081.25 609240.93,3276081.25 609215.37,3276074.22 609215.37,3276074.22 609143.45,3276054.53 609143.45,3276054.53 609034.82,3276024.89 609034.82,3276024.89 608955.27,3276003.16 608955.27,3276003.16 608886.93,3275984.55 608886.93,3275984.55 608817.50,3275965.56 608817.50,3275965.56 608682.26,3275928.58 608682.26,3275928.58 608644.25,3275918.21 608644.25,3275918.21 608579.89,3275900.62 608579.89,3275900.62 608561.12,3275895.45 608561.12,3275895.45 608534.48,3275888.16 608534.48,3275888.16 608504.63,3275879.96 608504.63,3275879.96 608464.11,3275868.91 608464.11,3275868.91 608419.07,3275856.51 608419.07,3275856.51 608399.12,3275851.02 608399.12,3275851.02 608372.44,3275843.70 608372.44,3275843.70 608339.89,3275834.86 608339.89,3275834.86 608321.55,3275829.88 608321.55,3275829.88 608306.78,3275825.86 608306.78,3275825.86 608302.37,3275824.67">
        <lane index="0" width="3.66" type="shoulder" disallow="all" />
        <lane index="1" width="3.66" />
        <lane index="2" width="3.66" />
    </edge>
    <edge id="508.0" from="junction_39" to="node_508_end" numLanes="5" speed="13.89" type="town" shape="608272.00,3275816.35 608249.58,3275810.17 608249.58,3275810.17 608223.41,3275802.98 608223.41,3275802.98 608182.83,3275791.90 608182.83,3275791.90 608156.02,3275784.62">
        <lane index="0" width="3.66" type="shoulder" disallow="all" />
        <lane index="1" width="3.66" />
        <lane index="2" width="3.66" />
        <lane index="3" width="3.66" />
        <lane index="4" width="3.66" />
    </edge>
    <edge id="513.0" from="junction_101" to="node_513_end" numLanes="1" speed="13.89" type="town" shape="609635.56,3276196.82 609627.02,3276194.68 609627.02,3276194.68 609621.00,3276193.19 609621.00,3276193.19 609608.13,3276190.30 609608.13,3276190.30 609599.70,3276188.54 609599.70,3276188.54 609594.91,3276187.63 609594.91,3276187.63 609584.31,3276185.66">
        <lane index="0" width="3.66" />
    </edge>
    <edge id="516.0" from="node_516_start" to="junction_101" numLanes="3" speed="13.89" type="town" shape="612296.96,3276673.42 612276.35,3276673.05 612276.35,3276673.05 612241.02,3276672.38 612241.02,3276672.38 612212.36,3276671.81 612212.36,3276671.81 612165.28,3276670.85 612165.28,3276670.85 612129.74,3276670.10 612129.74,3276670.10 612097.55,3276669.44 612097.55,3276669.44 612064.61,3276668.80 612064.61,3276668.80 612036.48,3276668.29 612036.48,3276668.29 612003.65,3276667.66 612003.65,3276667.66 611974.79,3276667.13 611974.79,3276667.13 611946.22,3276666.60 611946.22,3276666.60 611942.32,3276666.52 611942.32,3276666.52 611934.82,3276666.39 611934.82,3276666.39 611915.10,3276666.04 611915.10,3276666.04 611880.49,3276665.38 611880.49,3276665.38 611853.44,3276664.85 611853.44,3276664.85 611831.14,3276664.44 611831.14,3276664.44 611802.32,3276663.87 611802.32,3276663.87 611763.01,3276663.06 611763.01,3276663.06 611725.26,3276662.26 611725.26,3276662.26 611699.10,3276661.75 611699.10,3276661.75 611660.42,3276660.91 611660.42,3276660.91 611615.55,3276659.83 611615.55,3276659.83 611569.05,3276658.75 611569.05,3276658.75 611531.98,3276657.83 611531.98,3276657.83 611490.99,3276656.36 611490.99,3276656.36 611470.93,3276655.21 611470.93,3276655.21 611454.98,3276654.19 611454.98,3276654.19 611438.39,3276652.96 611438.39,3276652.96 611422.32,3276651.60 611422.32,3276651.60 611407.06,3276650.17 611407.06,3276650.17 611380.68,3276647.16 611380.68,3276647.16 611358.87,3276644.39 611358.87,3276644.39 611337.18,3276641.34 611337.18,3276641.34 611304.31,3276636.32 611304.31,3276636.32 611277.29,3276631.81 611277.29,3276631.81 611250.79,3276626.95 611250.79,3276626.95 611237.17,3276624.29 611237.17,3276624.29 611223.37,3276621.40 611223.37,3276621.40 611206.57,3276617.71 611206.57,3276617.71 611183.11,3276612.32 611183.11,3276612.32 611156.06,3276605.63 611156.06,3276605.63 611124.83,3276597.38 611124.83,3276597.38 611056.69,3276578.88 611056.69,3276578.88 610973.78,3276556.45 610973.78,3276556.45 610917.15,3276540.85 610917.15,3276540.85 610846.29,3276521.44 610846.29,3276521.44 610798.88,3276508.41 610798.88,3276508.41 610715.88,3276485.64 610715.88,3276485.64 610637.65,3276464.33 610637.65,3276464.33 610597.69,3276453.35 610597.69,3276453.35 610551.13,3276440.56 610551.13,3276440.56 610527.92,3276434.22 610527.92,3276434.22 610469.98,3276418.30 610469.98,3276418.30 610419.96,3276404.55 610419.96,3276404.55 610354.49,3276386.58 610354.49,3276386.58 610289.08,3276368.68 610289.08,3276368.68 610218.78,3276349.45 610218.78,3276349.45 610141.37,3276328.22 610141.37,3276328.22 610043.30,3276301.35 610043.30,3276301.35 609953.86,3276276.81 609953.86,3276276.81 609858.45,3276250.60">
        <lane index="0" width="3.66" type="shoulder" disallow="all" />
        <lane index="1" width="3.66" />
        <lane index="2" width="3.66" />
    </edge>
    <edge id="520.0" from="node_513_end" to="node_520_end" numLanes="1" speed="13.89" type="town" shape="609584.31,3276185.66 609574.56,3276184.06 609574.56,3276184.06 609565.93,3276182.66 609565.93,3276182.66 609556.17,3276181.17 609556.17,3276181.17 609547.68,3276179.99 609547.68,3276179.99 609537.36,3276178.58 609537.36,3276178.58 609525.10,3276177.11 609525.10,3276177.11 609516.26,3276176.27 609516.26,3276176.27 609505.84,3276175.55 609505.84,3276175.55 609496.32,3276175.03 609496.32,3276175.03 609485.89,3276174.72 609485.89,3276174.72 609475.10,3276174.57 609475.10,3276174.57 609464.09,3276174.60 609464.09,3276174.60 609449.44,3276174.94 609449.44,3276174.94 609431.50,3276175.74 609431.50,3276175.74 609421.35,3276176.28">
        <lane index="0" width="3.66" />
    </edge>
    <edge id="521.0" from="node_521_start" to="junction_39" numLanes="2" speed="13.89" type="town" shape="608468.62,3275926.26 608455.56,3275916.73 608455.56,3275916.73 608442.83,3275907.98 608442.83,3275907.98 608425.96,3275896.95 608425.96,3275896.95 608414.48,3275889.87 608414.48,3275889.87 608402.56,3275882.78 608402.56,3275882.78 608388.73,3275875.03 608388.73,3275875.03 608377.76,3275869.08 608377.76,3275869.08 608363.84,3275862.07 608363.84,3275862.07 608354.82,3275857.72 608354.82,3275857.72 608344.08,3275852.79 608344.08,3275852.79 608335.32,3275848.96 608335.32,3275848.96 608321.47,3275843.17 608321.47,3275843.17 608306.19,3275837.04 608306.19,3275837.04 608299.22,3275834.26">
        <lane index="0" width="3.66" />
        <lane index="1" width="3.66" />
    </edge>
    <edge id="523.0" from="node_523_start" to="node_523_end" numLanes="3" speed="13.89" type="town" shape="607048.34,3275481.70 607046.76,3275481.26 607046.76,3275481.26 607026.06,3275475.60 607026.06,3275475.60 606986.69,3275464.78 606986.69,3275464.78 606971.47,3275460.62 606971.47,3275460.62 606964.92,3275458.79 606964.92,3275458.79 606954.65,3275455.93 606954.65,3275455.93 606942.79,3275452.68 606942.79,3275452.68 606928.21,3275448.71 606928.21,3275448.71 606913.07,3275444.51 606913.07,3275444.51 606895.73,3275439.84 606895.73,3275439.84 606882.24,3275436.21 606882.24,3275436.21 606868.22,3275432.40 606868.22,3275432.40 606851.57,3275427.86 606851.57,3275427.86 606825.12,3275420.66 606825.12,3275420.66 606802.08,3275414.27 606802.08,3275414.27 606781.93,3275408.75 606781.93,3275408.75 606766.41,3275404.52 606766.41,3275404.52 606750.22,3275400.00 606750.22,3275400.00 606734.18,3275395.58 606734.18,3275395.58 606711.27,3275389.26 606711.27,3275389.26 606693.01,3275384.26 606693.01,3275384.26 606673.43,3275378.91 606673.43,3275378.91 606651.77,3275373.03 606651.77,3275373.03 606630.77,3275367.30 606630.77,3275367.30 606606.70,3275360.61 606606.70,3275360.61 606582.51,3275353.99 606582.51,3275353.99 606561.43,3275348.20 606561.43,3275348.20 606535.89,3275341.19 606535.89,3275341.19 606517.21,3275336.13 606517.21,3275336.13 606498.69,3275331.05 606498.69,3275331.05 606477.50,3275325.23 606477.50,3275325.23 606472.59,3275323.90 606472.59,3275323.90 606454.87,3275319.06 606454.87,3275319.06 606433.86,3275313.33 606433.86,3275313.33 606414.55,3275307.99 606414.55,3275307.99 606391.69,3275301.72 606391.69,3275301.72 606368.74,3275295.51 606368.74,3275295.51 606342.97,3275288.40 606342.97,3275288.40 606316.42,3275281.09 606316.42,3275281.09 606288.67,3275273.52 606288.67,3275273.52 606263.56,3275266.66 606263.56,3275266.66 606241.43,3275260.63 606241.43,3275260.63 606224.48,3275255.99 606224.48,3275255.99 606199.29,3275248.98 606199.29,3275248.98 606179.00,3275243.52 606179.00,3275243.52 606160.82,3275238.53 606160.82,3275238.53 606137.70,3275232.13 606137.70,3275232.13 606112.99,3275225.42 606112.99,3275225.42 606081.43,3275216.71 606081.43,3275216.71 606055.94,3275209.74 606055.94,3275209.74 606037.42,3275204.72 606037.42,3275204.72 606018.81,3275199.64 606018.81,3275199.64 606003.79,3275195.51 606003.79,3275195.51 605978.49,3275188.52 605978.49,3275188.52 605963.92,3275184.57 605963.92,3275184.57 605938.66,3275177.69 605938.66,3275177.69 605909.18,3275169.68 605909.18,3275169.68 605892.93,3275165.30 605892.93,3275165.30 605867.76,3275158.37 605867.76,3275158.37 605839.72,3275150.60 605839.72,3275150.60 605793.14,3275137.92 605793.14,3275137.92 605749.72,3275126.08 605749.72,3275126.08 605718.22,3275117.40 605718.22,3275117.40 605687.97,3275109.09 605687.97,3275109.09 605662.67,3275102.12 605662.67,3275102.12 605630.43,3275093.29 605630.43,3275093.29 605612.08,3275088.22 605612.08,3275088.22 605593.21,3275083.01 605593.21,3275083.01 605568.82,3275076.40 605568.82,3275076.40 605536.22,3275067.45 605536.22,3275067.45 605509.31,3275060.06 605509.31,3275060.06 605475.65,3275050.82 605475.65,3275050.82 605459.04,3275046.30 605459.04,3275046.30 605440.29,3275041.20 605440.29,3275041.20 605429.07,3275038.21 605429.07,3275038.21 605418.57,3275035.34 605418.57,3275035.34 605403.94,3275031.31 605403.94,3275031.31 605380.51,3275024.85 605380.51,3275024.85 605356.04,3275018.15 605356.04,3275018.15 605348.81,3275016.12">
        <lane index="0" width="3.66" type="shoulder" disallow="all" />
        <lane index="1" width="3.66" />
        <lane index="2" width="3.66" />
    </edge>
    <edge id="524.0" from="node_524_start" to="node_524_end" numLanes="5" speed="13.89" type="town" shape="607921.78,3275720.68 607903.53,3275715.80 607903.53,3275715.80 607886.90,3275711.21 607886.90,3275711.21 607866.03,3275705.53 607866.03,3275705.53 607853.14,3275702.00 607853.14,3275702.00 607842.47,3275699.08 607842.47,3275699.08 607826.97,3275694.82 607826.97,3275694.82 607814.26,3275691.34">
        <lane index="0" width="3.66" type="shoulder" disallow="all" />
        <lane index="1" width="3.66" />
        <lane index="2" width="3.66" />
        <lane index="3" width="3.66" />
        <lane index="4" width="3.66" />
    </edge>
    <edge id="525.0" from="node_508_end" to="node_525_end" numLanes="5" speed="13.89" type="town" shape="608156.02,3275784.62 608125.82,3275776.40 608125.82,3275776.40 608093.96,3275767.70 608093.96,3275767.70 608059.89,3275758.40 608059.89,3275758.40 608032.63,3275750.94 608032.63,3275750.94 608007.27,3275744.04 608007.27,3275744.04 607999.27,3275741.83 607999.27,3275741.83 607985.84,3275738.13 607985.84,3275738.13 607982.86,3275737.33">
        <lane index="0" width="3.66" type="shoulder" disallow="all" />
        <lane index="1" width="3.66" />
        <lane index="2" width="3.66" />
        <lane index="3" width="3.66" />
        <lane index="4" width="3.66" />
    </edge>
    <edge id="529.0" from="node_534_end" to="node_540_start" numLanes="1" speed="13.89" type="town" shape="603938.90,3274896.84 603879.53,3274892.49">
        <lane index="0" width="3.66" />
    </edge>
    <edge id="530.0" from="node_532_end" to="node_536_end" numLanes="2" speed="13.89" type="town" shape="607671.66,3275662.41 607615.19,3275644.27">
        <lane index="0" width="3.66" type="shoulder" disallow="all" />
        <lane index="1" width="3.66" />
    </edge>
    <edge id="531.0" from="node_531_start" to="junction_40" numLanes="1" speed="13.89" type="town" shape="604323.99,3275003.33 604328.96,3274995.67 604328.96,3274995.67 604332.08,3274987.79 604332.08,3274987.79 604334.27,3274979.88 604334.27,3274979.88 604334.62,3274973.28 604334.62,3274973.28 604333.90,3274965.98 604333.90,3274965.98 604329.17,3274954.96 604329.17,3274954.96 604327.06,3274950.00 604327.06,3274950.00 604324.54,3274945.12 604324.54,3274945.12 604321.28,3274939.73 604321.28,3274939.73 604316.83,3274933.48 604316.83,3274933.48 604312.75,3274928.59 604312.75,3274928.59 604308.21,3274923.99 604308.21,3274923.99 604303.53,3274920.05 604303.53,3274920.05 604298.50,3274916.57 604298.50,3274916.57 604294.18,3274913.85 604294.18,3274913.85 604289.96,3274911.57 604289.96,3274911.57 604285.37,3274909.15 604285.37,3274909.15 604280.17,3274906.79 604280.17,3274906.79 604276.09,3274905.36 604276.09,3274905.36 604271.33,3274903.87 604271.33,3274903.87 604269.36,3274903.36">
        <lane index="0" width="3.66" />
    </edge>
    <edge id="532.0" from="node_524_end" to="node_532_end" numLanes="5" speed="13.89" type="town" shape="607814.26,3275691.34 607809.61,3275690.07 607809.61,3275690.07 607794.13,3275685.85 607794.13,3275685.85 607780.96,3275682.27 607780.96,3275682.27 607771.40,3275679.67 607771.40,3275679.67 607757.18,3275675.77 607757.18,3275675.77 607744.66,3275672.33 607744.66,3275672.33 607734.52,3275669.53 607734.52,3275669.53 607724.21,3275666.74 607724.21,3275666.74 607717.88,3275665.02 607717.88,3275665.02 607710.11,3275662.92 607710.11,3275662.92 607701.88,3275660.67 607701.88,3275660.67 607692.86,3275658.16 607692.86,3275658.16 607683.75,3275655.72 607683.75,3275655.72 607674.20,3275653.11">
        <lane index="0" width="3.66" type="shoulder" disallow="all" />
        <lane index="1" width="3.66" />
        <lane index="2" width="3.66" />
        <lane index="3" width="3.66" />
        <lane index="4" width="3.66" />
    </edge>
    <edge id="534.0" from="junction_40" to="node_534_end" numLanes="3" speed="13.89" type="town" shape="604244.86,3274893.07 604235.43,3274892.93 604235.43,3274892.93 604218.40,3274892.74 604218.40,3274892.74 604201.65,3274892.55 604201.65,3274892.55 604184.82,3274892.39 604184.82,3274892.39 604168.74,3274892.20 604168.74,3274892.20 604143.47,3274891.96 604143.47,3274891.96 604130.31,3274891.83 604130.31,3274891.83 604119.04,3274891.70 604119.04,3274891.70 604107.83,3274891.55 604107.83,3274891.55 604093.47,3274891.39 604093.47,3274891.39 604081.85,3274891.21 604081.85,3274891.21 604069.39,3274891.05 604069.39,3274891.05 604056.30,3274890.89 604056.30,3274890.89 604046.78,3274890.77 604046.78,3274890.77 604035.29,3274890.61 604035.29,3274890.61 604024.68,3274890.50 604024.68,3274890.50 604011.84,3274890.34 604011.84,3274890.34 603998.69,3274890.14 603998.69,3274890.14 603985.65,3274889.99 603985.65,3274889.99 603977.77,3274889.89 603977.77,3274889.89 603972.14,3274889.81 603972.14,3274889.81 603960.94,3274889.70 603960.94,3274889.70 603948.74,3274889.53 603948.74,3274889.53 603938.97,3274889.43">
        <lane index="0" width="3.66" />
        <lane index="1" width="3.66" />
        <lane index="2" width="3.66" />
    </edge>
    <edge id="535.0" from="junction_103" to="node_535_end" numLanes="1" speed="13.89" type="town" shape="605232.18,3274994.28 605229.17,3274993.75 605229.17,3274993.75 605220.21,3274992.21 605220.21,3274992.21 605205.42,3274989.68 605205.42,3274989.68 605195.59,3274988.17 605195.59,3274988.17 605181.94,3274986.09 605181.94,3274986.09 605167.23,3274984.02 605167.23,3274984.02 605151.04,3274981.62 605151.04,3274981.62 605135.06,3274979.37 605135.06,3274979.37 605124.41,3274977.85">
        <lane index="0" width="3.66" />
    </edge>
    <edge id="536.0" from="node_532_end" to="node_536_end" numLanes="3" speed="13.89" type="town" shape="607674.20,3275653.11 607658.47,3275648.81 607658.47,3275648.81 607642.18,3275644.40 607642.18,3275644.40 607627.72,3275640.31 607627.72,3275640.31 607617.08,3275637.44">
        <lane index="0" width="3.66" />
        <lane index="1" width="3.66" />
        <lane index="2" width="3.66" />
    </edge>
    <edge id="538.0" from="node_525_end" to="node_524_start" numLanes="5" speed="13.89" type="town" shape="607982.86,3275737.33 607969.56,3275733.74 607969.56,3275733.74 607950.04,3275728.36 607950.04,3275728.36 607933.38,3275723.86 607933.38,3275723.86 607921.78,3275720.68">
        <lane index="0" width="3.66" type="shoulder" disallow="all" />
        <lane index="1" width="3.66" />
        <lane index="2" width="3.66" />
        <lane index="3" width="3.66" />
        <lane index="4" width="3.66" />
    </edge>
    <edge id="540.0" from="node_540_start" to="node_540_end" numLanes="3" speed="13.89" type="town" shape="603879.57,3274888.83 603873.68,3274888.77 603873.68,3274888.77 603855.94,3274888.58 603855.94,3274888.58 603841.77,3274888.42 603841.77,3274888.42 603832.03,3274888.29 603832.03,3274888.29 603823.17,3274888.21 603823.17,3274888.21 603810.73,3274888.07 603810.73,3274888.07 603796.79,3274887.90 603796.79,3274887.90 603779.36,3274887.72 603779.36,3274887.72 603763.84,3274887.55 603763.84,3274887.55 603751.31,3274887.38 603751.31,3274887.38 603735.19,3274887.23 603735.19,3274887.23 603724.30,3274887.10 603724.30,3274887.10 603710.82,3274886.99 603710.82,3274886.99 603697.54,3274886.85 603697.54,3274886.85 603669.48,3274886.53 603669.48,3274886.53 603656.79,3274886.39 603656.79,3274886.39 603644.43,3274886.28 603644.43,3274886.28 603628.71,3274886.10 603628.71,3274886.10 603610.66,3274885.93 603610.66,3274885.93 603600.15,3274885.79 603600.15,3274885.79 603588.46,3274885.67 603588.46,3274885.67 603575.86,3274885.52 603575.86,3274885.52 603564.07,3274885.45 603564.07,3274885.45 603554.10,3274885.34 603554.10,3274885.34 603542.26,3274885.17 603542.26,3274885.17 603530.22,3274885.06 603530.22,3274885.06 603522.90,3274885.02 603522.90,3274885.02 603507.03,3274884.85 603507.03,3274884.85 603495.97,3274884.71 603495.97,3274884.71 603481.33,3274884.55 603481.33,3274884.55 603467.94,3274884.41 603467.94,3274884.41 603457.33,3274884.32 603457.33,3274884.32 603444.83,3274884.17 603444.83,3274884.17 603432.76,3274883.99 603432.76,3274883.99 603421.93,3274883.89 603421.93,3274883.89 603414.11,3274883.78 603414.11,3274883.78 603401.24,3274883.64 603401.24,3274883.64 603386.82,3274883.45 603386.82,3274883.45 603371.88,3274883.32 603371.88,3274883.32 603358.29,3274883.20 603358.29,3274883.20 603341.21,3274883.00 603341.21,3274883.00 603321.10,3274882.80 603321.10,3274882.80 603301.93,3274882.57 603301.93,3274882.57 603289.37,3274882.47 603289.37,3274882.47 603270.92,3274882.30 603270.92,3274882.30 603258.63,3274882.14 603258.63,3274882.14 603239.19,3274881.94 603239.19,3274881.94 603222.99,3274881.79 603222.99,3274881.79 603206.83,3274881.61 603206.83,3274881.61 603195.77,3274881.48 603195.77,3274881.48 603183.49,3274881.37 603183.49,3274881.37 603166.92,3274881.15 603166.92,3274881.15 603153.37,3274881.02 603153.37,3274881.02 603142.10,3274880.89 603142.10,3274880.89 603129.50,3274880.74 603129.50,3274880.74 603116.93,3274880.62 603116.93,3274880.62 603100.29,3274880.40 603100.29,3274880.40 603083.17,3274880.21 603083.17,3274880.21 603065.06,3274880.04 603065.06,3274880.04 603048.59,3274879.87 603048.59,3274879.87 603028.17,3274879.58 603028.17,3274879.58 603018.87,3274879.50 603018.87,3274879.50 603007.65,3274879.39 603007.65,3274879.39 602998.71,3274879.28 602998.71,3274879.28 602990.73,3274879.19 602990.73,3274879.19 602979.55,3274879.05 602979.55,3274879.05 602962.61,3274878.93 602962.61,3274878.93 602946.76,3274878.75 602946.76,3274878.75 602931.88,3274878.60 602931.88,3274878.60 602921.30,3274878.53 602921.30,3274878.53 602910.11,3274878.41 602910.11,3274878.41 602902.17,3274878.29 602902.17,3274878.29 602889.04,3274878.18 602889.04,3274878.18 602870.08,3274877.99 602870.08,3274877.99 602860.92,3274877.90 602860.92,3274877.90 602847.33,3274877.74 602847.33,3274877.74 602835.97,3274877.62 602835.97,3274877.62 602826.43,3274877.52 602826.43,3274877.52 602799.62,3274877.31 602799.62,3274877.31 602774.74,3274876.97 602774.74,3274876.97 602767.85,3274876.92 602767.85,3274876.92 602758.81,3274876.87 602758.81,3274876.87 602748.45,3274876.74 602748.45,3274876.74 602738.62,3274876.63 602738.62,3274876.63 602728.97,3274876.53 602728.97,3274876.53 602719.43,3274876.43 602719.43,3274876.43 602706.73,3274876.30 602706.73,3274876.30 602695.95,3274876.22 602695.95,3274876.22 602687.30,3274876.11 602687.30,3274876.11 602679.04,3274876.02 602679.04,3274876.02 602673.55,3274875.96 602673.55,3274875.96 602664.85,3274875.88 602664.85,3274875.88 602656.22,3274875.78 602656.22,3274875.78 602649.02,3274875.70 602649.02,3274875.70 602637.21,3274875.59 602637.21,3274875.59 602626.72,3274875.45 602626.72,3274875.45 602621.31,3274875.44 602621.31,3274875.44 602615.35,3274875.36 602615.35,3274875.36 602608.41,3274875.28 602608.41,3274875.28 602600.71,3274875.21 602600.71,3274875.21 602588.70,3274875.04 602588.70,3274875.04 602584.71,3274875.02 602584.71,3274875.02 602577.82,3274874.93 602577.82,3274874.93 602569.37,3274874.86 602569.37,3274874.86 602562.50,3274874.78 602562.50,3274874.78 602554.17,3274874.70 602554.17,3274874.70 602543.09,3274874.58 602543.09,3274874.58 602534.43,3274874.49 602534.43,3274874.49 602518.99,3274874.31 602518.99,3274874.31 602505.02,3274874.19 602505.02,3274874.19 602494.13,3274874.04 602494.13,3274874.04 602485.51,3274873.99 602485.51,3274873.99 602473.76,3274873.88 602473.76,3274873.88 602465.02,3274873.76 602465.02,3274873.76 602456.27,3274873.73 602456.27,3274873.73 602450.52,3274873.67 602450.52,3274873.67 602444.73,3274873.66 602444.73,3274873.66 602439.12,3274873.69 602439.12,3274873.69 602428.23,3274873.82 602428.23,3274873.82 602402.69,3274873.60 602402.69,3274873.60 602389.23,3274873.57 602389.23,3274873.57 602377.53,3274873.41 602377.53,3274873.41 602358.38,3274873.23 602358.38,3274873.23 602343.80,3274873.07">
        <lane index="0" width="3.66" type="shoulder" disallow="all" />
        <lane index="1" width="3.66" />
        <lane index="2" width="3.66" />
    </edge>
    <edge id="541.0" from="node_534_end" to="node_540_start" numLanes="2" speed="13.89" type="town" shape="603938.97,3274889.43 603926.18,3274889.30 603926.18,3274889.30 603919.12,3274889.20 603919.12,3274889.20 603909.55,3274889.13 603909.55,3274889.13 603899.46,3274889.03 603899.46,3274889.03 603887.56,3274888.92 603887.56,3274888.92 603879.57,3274888.83">
        <lane index="0" width="3.66" />
        <lane index="1" width="3.66" />
    </edge>
    <edge id="543.0" from="node_523_end" to="node_543_end" numLanes="2" speed="13.89" type="town" shape="605348.81,3275016.12 605339.68,3275013.56 605339.68,3275013.56 605326.15,3275009.82 605326.15,3275009.82 605310.52,3275005.52 605310.52,3275005.52 605299.25,3275002.40">
        <lane index="0" width="3.66" />
        <lane index="1" width="3.66" />
    </edge>
    <edge id="545.0" from="node_536_end" to="node_545_end" numLanes="4" speed="13.89" type="town" shape="607617.08,3275637.44 607611.74,3275635.96 607611.74,3275635.96 607598.41,3275632.29 607598.41,3275632.29 607582.21,3275627.84 607582.21,3275627.84 607564.57,3275622.97 607564.57,3275622.97 607548.42,3275618.54 607548.42,3275618.54 607529.40,3275613.30 607529.40,3275613.30 607510.33,3275608.04 607510.33,3275608.04 607491.54,3275602.96 607491.54,3275602.96 607476.88,3275598.99 607476.88,3275598.99 607463.08,3275595.15 607463.08,3275595.15 607448.06,3275591.06 607448.06,3275591.06 607432.24,3275586.74 607432.24,3275586.74 607412.93,3275581.47 607412.93,3275581.47 607391.03,3275575.44 607391.03,3275575.44 607370.64,3275569.86 607370.64,3275569.86 607351.40,3275564.59 607351.40,3275564.59 607330.31,3275558.86 607330.31,3275558.86 607309.00,3275553.10 607309.00,3275553.10 607285.18,3275546.62 607285.18,3275546.62 607257.15,3275538.97 607257.15,3275538.97 607240.57,3275534.39">
        <lane index="0" width="3.66" type="shoulder" disallow="all" />
        <lane index="1" width="3.66" />
        <lane index="2" width="3.66" />
        <lane index="3" width="3.66" />
    </edge>
    <edge id="547.0" from="node_523_end" to="node_543_end" numLanes="1" speed="13.89" type="town" shape="605347.89,3275019.72 605297.55,3275008.83">
        <lane index="0" width="3.66" />
    </edge>
    <edge id="550.0" from="junction_103" to="junction_40" numLanes="3" speed="13.89" type="town" shape="605234.48,3274984.57 605232.36,3274983.96 605232.36,3274983.96 605211.21,3274978.17 605211.21,3274978.17 605182.41,3274970.22 605182.41,3274970.22 605151.26,3274961.81 605151.26,3274961.81 605131.97,3274956.63 605131.97,3274956.63 605121.05,3274953.72 605121.05,3274953.72 605104.55,3274949.49 605104.55,3274949.49 605088.56,3274945.61 605088.56,3274945.61 605075.02,3274942.42 605075.02,3274942.42 605055.86,3274938.08 605055.86,3274938.08 605035.64,3274933.65 605035.64,3274933.65 605020.75,3274930.60 605020.75,3274930.60 605005.54,3274927.68 605005.54,3274927.68 604996.42,3274926.00 604996.42,3274926.00 604985.23,3274924.00 604985.23,3274924.00 604967.67,3274921.00 604967.67,3274921.00 604950.33,3274918.25 604950.33,3274918.25 604939.64,3274916.64 604939.64,3274916.64 604928.80,3274915.09 604928.80,3274915.09 604918.95,3274913.74 604918.95,3274913.74 604907.76,3274912.30 604907.76,3274912.30 604896.75,3274910.94 604896.75,3274910.94 604881.90,3274909.11 604881.90,3274909.11 604865.70,3274907.27 604865.70,3274907.27 604850.21,3274905.71 604850.21,3274905.71 604840.63,3274904.80 604840.63,3274904.80 604823.65,3274903.30 604823.65,3274903.30 604808.84,3274902.15 604808.84,3274902.15 604795.17,3274901.21 604795.17,3274901.21 604781.26,3274900.43 604781.26,3274900.43 604772.46,3274900.00 604772.46,3274900.00 604753.69,3274899.10 604753.69,3274899.10 604742.35,3274898.65 604742.35,3274898.65 604732.35,3274898.37 604732.35,3274898.37 604721.48,3274898.12 604721.48,3274898.12 604705.60,3274897.85 604705.60,3274897.85 604685.88,3274897.62 604685.88,3274897.62 604673.84,3274897.52 604673.84,3274897.52 604660.05,3274897.35 604660.05,3274897.35 604645.65,3274897.25 604645.65,3274897.25 604625.39,3274897.12 604625.39,3274897.12 604603.70,3274896.86 604603.70,3274896.86 604583.56,3274896.68 604583.56,3274896.68 604577.46,3274896.66 604577.46,3274896.66 604566.00,3274896.54 604566.00,3274896.54 604547.41,3274896.30 604547.41,3274896.30 604528.99,3274896.07 604528.99,3274896.07 604511.49,3274895.84 604511.49,3274895.84 604493.64,3274895.68 604493.64,3274895.68 604477.18,3274895.51 604477.18,3274895.51 604459.06,3274895.36 604459.06,3274895.36 604450.83,3274895.28 604450.83,3274895.28 604439.02,3274895.12 604439.02,3274895.12 604422.45,3274894.94 604422.45,3274894.94 604389.94,3274894.50 604389.94,3274894.50 604374.77,3274894.42 604374.77,3274894.42 604358.05,3274894.19 604358.05,3274894.19 604336.05,3274893.96 604336.05,3274893.96 604312.35,3274893.69 604312.35,3274893.69 604301.51,3274893.59 604301.51,3274893.59 604270.38,3274893.26">
        <lane index="0" width="3.66" type="shoulder" disallow="all" />
        <lane index="1" width="3.66" />
        <lane index="2" width="3.66" />
    </edge>
    <edge id="551.0" from="node_543_end" to="junction_103" numLanes="3" speed="13.89" type="town" shape="605299.25,3275002.40 605289.94,3274999.86 605289.94,3274999.86 605269.04,3274994.04 605269.04,3274994.04 605260.48,3274991.71">
        <lane index="0" width="3.66" />
        <lane index="1" width="3.66" />
        <lane index="2" width="3.66" />
    </edge>