<?xml version="1.0" encoding="UTF-8"?>

<!-- generated on 2025-10-19 17:33:41 by Eclipse SUMO netconvert Version 1.23.1
<netconvertConfiguration xmlns:xsi="http://www.w3.org/2001/XMLSchema-instance" xsi:noNamespaceSchemaLocation="http://sumo.dlr.de/xsd/netconvertConfiguration.xsd">

    <input>
        <node-files value="/home/sdai/harry/TeraSim/jupiter/wb/jupiter_wb_tiles/tile_0032/tile_0032.nod.xml"/>
        <edge-files value="/home/sdai/harry/TeraSim/jupiter/wb/jupiter_wb_tiles/tile_0032/tile_0032.edg.xml"/>
        <connection-files value="/home/sdai/harry/TeraSim/jupiter/wb/jupiter_wb_tiles/tile_0032/tile_0032.con.xml"/>
    </input>

    <output>
        <output-file value="/home/sdai/harry/TeraSim/jupiter/wb/jupiter_wb_tiles/tile_0032/tile_0032.net.xml"/>
        <output.street-names value="true"/>
        <output.original-names value="true"/>
    </output>

    <processing>
        <geometry.remove value="false"/>
        <geometry.min-dist value="0.5"/>
        <edges.join value="false"/>
    </processing>

    <junctions>
        <no-internal-links value="false"/>
        <no-turnarounds value="true"/>
        <junctions.join value="true"/>
        <junctions.join-dist value="10"/>
        <junctions.corner-detail value="5"/>
        <junctions.internal-link-detail value="5"/>
        <junctions.limit-turn-speed value="5.5"/>
        <rectangular-lane-cut value="true"/>
        <check-lane-foes.all value="true"/>
    </junctions>

</netconvertConfiguration>
-->

<net version="1.20" junctionCornerDetail="5" junctionLinkDetail="5" rectangularLaneCut="true" limitTurnSpeed="5.50" checkLaneFoesAll="1" xmlns:xsi="http://www.w3.org/2001/XMLSchema-instance" xsi:noNamespaceSchemaLocation="http://sumo.dlr.de/xsd/net_file.xsd">

    <location netOffset="-602261.55,-3274872.14" convBoundary="0.00,0.00,10035.41,1801.28" origBoundary="0.00,0.00,612296.96,3276673.42" projParameter="!"/>

    <edge id=":junction_101_0" function="internal">
        <lane id=":junction_101_0_0" index="0" speed="13.89" length="114.71" width="3.66" shape="7484.05,1357.32 7373.57,1326.46"/>
    </edge>
    <edge id=":junction_101_1" function="internal">
        <lane id=":junction_101_1_0" index="0" speed="13.89" length="114.93" width="3.66" shape="7484.05,1357.32 7374.30,1322.98"/>
        <lane id=":junction_101_1_1" index="1" speed="13.89" length="114.93" width="3.66" shape="7484.89,1353.76 7375.27,1319.45"/>
    </edge>
    <edge id=":junction_103_0" function="internal">
        <lane id=":junction_103_0_0" index="0" speed="13.89" length="29.91" width="3.66" shape="2999.71,129.27 2989.73,126.90 2981.46,125.46 2974.96,124.59 2970.31,123.94"/>
    </edge>
    <edge id=":junction_103_1" function="internal">
        <lane id=":junction_103_1_0" index="0" speed="13.89" length="30.32" width="3.66" shape="3000.68,125.73 2971.41,117.71"/>
        <lane id=":junction_103_1_1" index="1" speed="13.89" length="30.32" width="3.66" shape="3001.64,122.20 2972.42,114.19"/>
    </edge>
    <edge id=":junction_39_0" function="internal">
        <lane id=":junction_39_0_0" index="0" speed="13.89" length="31.02" width="3.66" shape="6035.64,967.22 6029.32,964.56 6023.37,962.02 6016.41,959.41 6007.05,956.56"/>
        <lane id=":junction_39_0_1" index="1" speed="13.89" length="31.02" width="3.66" shape="6036.99,963.82 6030.64,961.15 6024.61,958.58 6017.53,955.93 6008.02,953.03"/>
        <lane id=":junction_39_0_2" index="2" speed="13.89" length="31.02" width="3.66" shape="6036.99,963.82 6030.83,960.61 6025.19,956.84 6018.46,952.98 6008.99,949.50"/>
    </edge>
    <edge id=":junction_39_3" function="internal">
        <lane id=":junction_39_3_0" index="0" speed="13.89" length="31.51" width="3.66" shape="6039.39,957.83 6008.99,949.50"/>
        <lane id=":junction_39_3_1" index="1" speed="13.89" length="31.51" width="3.66" shape="6040.34,954.30 6009.96,945.97"/>
    </edge>
    <edge id=":junction_40_0" function="internal">
        <lane id=":junction_40_0_0" index="0" speed="13.89" length="24.41" width="3.66" shape="2007.35,32.99 2003.24,32.03 1998.01,31.13 1991.41,30.43 1983.18,30.08"/>
    </edge>
    <edge id=":junction_40_1" function="internal">
        <lane id=":junction_40_1_0" index="0" speed="13.89" length="25.54" width="3.66" shape="2008.77,26.61 1983.23,26.42"/>
        <lane id=":junction_40_1_1" index="1" speed="13.89" length="25.54" width="3.66" shape="2008.81,22.95 1983.28,22.76"/>
    </edge>
    <edge id=":node_504_end_0" function="internal">
        <lane id=":node_504_end_0_0" index="0" speed="13.89" length="3.00" width="3.66" shape="7325.45,1309.51 7322.56,1308.72"/>
        <lane id=":node_504_end_0_1" index="1" speed="13.89" length="3.00" width="3.66" shape="7326.42,1305.98 7323.53,1305.19"/>
    </edge>
    <edge id=":node_508_end_0" function="internal">
        <lane id=":node_508_end_0_0" index="0" speed="13.89" length="0.30" width="3.66" shape="5891.26,924.88 5890.96,924.80"/>
        <lane id=":node_508_end_0_1" index="1" speed="13.89" length="0.30" width="3.66" shape="5892.22,921.35 5891.93,921.27"/>
        <lane id=":node_508_end_0_2" index="2" speed="13.89" length="0.30" width="3.66" shape="5893.17,917.82 5892.89,917.74"/>
        <lane id=":node_508_end_0_3" index="3" speed="13.89" length="0.30" width="3.66" shape="5894.13,914.28 5893.85,914.21"/>
    </edge>
    <edge id=":node_513_end_0" function="internal">
        <lane id=":node_513_end_0_0" index="0" speed="13.89" length="0.28" width="3.66" shape="7322.58,1315.35 7322.31,1315.30"/>
    </edge>
    <edge id=":node_523_end_0" function="internal">
        <lane id=":node_523_end_0_0" index="0" speed="13.89" length="7.78" width="3.66" shape="3089.62,150.35 3082.06,148.53"/>
    </edge>
    <edge id=":node_523_end_1" function="internal">
        <lane id=":node_523_end_1_0" index="0" speed="13.89" length="8.13" width="3.66" shape="3089.62,150.35 3081.80,148.15"/>
        <lane id=":node_523_end_1_1" index="1" speed="13.89" length="8.13" width="3.66" shape="3090.61,146.82 3082.79,144.63"/>
    </edge>
    <edge id=":node_523_start_0" function="internal">
        <lane id=":node_523_start_0_0" index="0" speed="13.89" length="7.99" width="3.66" shape="4789.20,615.92 4781.50,613.80"/>
        <lane id=":node_523_start_0_1" index="1" speed="13.89" length="7.99" width="3.66" shape="4790.17,612.39 4782.46,610.27"/>
    </edge>
    <edge id=":node_523_start_2" function="internal">
        <lane id=":node_523_start_2_0" index="0" speed="13.89" length="8.01" width="3.66" shape="4789.20,615.96 4781.50,613.80"/>
    </edge>
    <edge id=":node_524_end_0" function="internal">
        <lane id=":node_524_end_0_0" index="0" speed="13.89" length="0.30" width="3.66" shape="5549.47,831.60 5549.19,831.52"/>
        <lane id=":node_524_end_0_1" index="1" speed="13.89" length="0.30" width="3.66" shape="5550.44,828.07 5550.15,827.99"/>
        <lane id=":node_524_end_0_2" index="2" speed="13.89" length="0.30" width="3.66" shape="5551.41,824.54 5551.12,824.46"/>
        <lane id=":node_524_end_0_3" index="3" speed="13.89" length="0.30" width="3.66" shape="5552.37,821.01 5552.08,820.93"/>
    </edge>
    <edge id=":node_524_start_0" function="internal">
        <lane id=":node_524_start_0_0" index="0" speed="13.89" length="0.30" width="3.66" shape="5657.01,860.94 5656.76,860.87"/>
        <lane id=":node_524_start_0_1" index="1" speed="13.89" length="0.30" width="3.66" shape="5657.98,857.41 5657.70,857.34"/>
        <lane id=":node_524_start_0_2" index="2" speed="13.89" length="0.30" width="3.66" shape="5658.95,853.88 5658.65,853.80"/>
        <lane id=":node_524_start_0_3" index="3" speed="13.89" length="0.30" width="3.66" shape="5659.91,850.35 5659.59,850.26"/>
    </edge>
    <edge id=":node_525_end_0" function="internal">
        <lane id=":node_525_end_0_0" index="0" speed="13.89" length="0.30" width="3.66" shape="5718.13,877.60 5717.83,877.52"/>
        <lane id=":node_525_end_0_1" index="1" speed="13.89" length="0.30" width="3.66" shape="5719.08,874.06 5718.79,873.99"/>
        <lane id=":node_525_end_0_2" index="2" speed="13.89" length="0.30" width="3.66" shape="5720.03,870.53 5719.74,870.45"/>
        <lane id=":node_525_end_0_3" index="3" speed="13.89" length="0.30" width="3.66" shape="5720.98,867.00 5720.69,866.92"/>
    </edge>
    <edge id=":node_532_end_0" function="internal">
        <lane id=":node_532_end_0_0" index="0" speed="13.89" length="3.86" width="3.66" shape="5410.76,793.73 5409.78,793.25 5409.25,792.62 5408.73,791.97 5407.76,791.44"/>
    </edge>
    <edge id=":node_532_end_1" function="internal">
        <lane id=":node_532_end_1_0" index="0" speed="13.89" length="3.00" width="3.66" shape="5411.73,790.20 5408.83,789.41"/>
        <lane id=":node_532_end_1_1" index="1" speed="13.89" length="3.00" width="3.66" shape="5412.69,786.67 5409.80,785.88"/>
        <lane id=":node_532_end_1_2" index="2" speed="13.89" length="3.00" width="3.66" shape="5413.66,783.14 5410.76,782.35"/>
    </edge>
    <edge id=":node_534_end_0" function="internal">
        <lane id=":node_534_end_0_0" index="0" speed="13.89" length="3.57" width="3.66" shape="1678.84,26.45 1675.27,26.38"/>
    </edge>
    <edge id=":node_534_end_1" function="internal">
        <lane id=":node_534_end_1_0" index="0" speed="13.89" length="3.00" width="3.66" shape="1678.88,22.80 1675.88,22.76"/>
        <lane id=":node_534_end_1_1" index="1" speed="13.89" length="3.00" width="3.66" shape="1678.91,19.14 1675.91,19.10"/>
    </edge>
    <edge id=":node_536_end_0" function="internal">
        <lane id=":node_536_end_0_0" index="0" speed="13.89" length="8.11" width="3.66" shape="5357.11,775.17 5349.27,773.06"/>
    </edge>
    <edge id=":node_536_end_1" function="internal">
        <lane id=":node_536_end_1_0" index="0" speed="13.89" length="8.00" width="3.66" shape="5357.01,775.18 5349.27,773.06"/>
        <lane id=":node_536_end_1_1" index="1" speed="13.89" length="8.00" width="3.66" shape="5357.97,771.64 5350.25,769.53"/>
        <lane id=":node_536_end_1_2" index="2" speed="13.89" length="8.00" width="3.66" shape="5358.92,768.11 5351.23,766.01"/>
    </edge>
    <edge id=":node_540_end_0" function="internal">
        <lane id=":node_540_end_0_0" index="0" speed="13.89" length="0.30" width="3.66" shape="82.34,6.42 82.04,6.42"/>
        <lane id=":node_540_end_0_1" index="1" speed="13.89" length="0.30" width="3.66" shape="82.38,2.76 82.08,2.76"/>
    </edge>
    <edge id=":node_540_start_0" function="internal">
        <lane id=":node_540_start_0_0" index="0" speed="13.89" length="8.11" width="3.66" shape="1622.11,22.49 1614.01,22.14"/>
    </edge>
    <edge id=":node_540_start_1" function="internal">
        <lane id=":node_540_start_1_0" index="0" speed="13.89" length="7.99" width="3.66" shape="1622.00,22.23 1614.01,22.14"/>
        <lane id=":node_540_start_1_1" index="1" speed="13.89" length="7.99" width="3.66" shape="1622.04,18.57 1614.05,18.48"/>
    </edge>
    <edge id=":node_543_end_0" function="internal">
        <lane id=":node_543_end_0_0" index="0" speed="13.89" length="4.87" width="3.66" shape="3037.93,136.02 3033.87,138.70"/>
        <lane id=":node_543_end_0_1" index="1" speed="13.89" length="4.87" width="3.66" shape="3038.91,132.49 3034.83,135.17"/>
    </edge>
    <edge id=":node_543_end_2" function="internal">
        <lane id=":node_543_end_2_0" index="0" speed="13.89" length="7.26" width="3.66" shape="3037.06,138.79 3035.80,131.64"/>
    </edge>
    <edge id=":node_545_end_0" function="internal">
        <lane id=":node_545_end_0_0" index="0" speed="13.89" length="3.10" width="3.66" shape="4978.06,671.48 4975.13,670.47"/>
    </edge>
    <edge id=":node_545_end_1" function="internal">
        <lane id=":node_545_end_1_0" index="0" speed="13.89" length="3.01" width="3.66" shape="4979.04,667.95 4976.14,667.16"/>
        <lane id=":node_545_end_1_1" index="1" speed="13.89" length="3.01" width="3.66" shape="4980.01,664.42 4977.11,663.62"/>
    </edge>

    <edge id="504.0" from="junction_101" to="node_504_end" priority="-1" type="town" shape="7376.07,1317.77 7366.69,1315.17 7354.01,1311.70 7341.99,1308.37 7325.46,1303.82">
        <lane id="504.0_0" index="0" speed="13.89" length="50.67" width="3.66" shape="7374.30,1322.98 7365.23,1320.46 7352.55,1316.99 7340.53,1313.66 7325.45,1309.51"/>
        <lane id="504.0_1" index="1" speed="13.89" length="50.67" width="3.66" shape="7375.27,1319.45 7366.21,1316.93 7353.53,1313.46 7341.50,1310.13 7326.42,1305.98"/>
    </edge>
    <edge id="507.0" from="node_504_end" to="junction_39" priority="-1" type="town" shape="7325.46,1303.82 7289.85,1294.09 7264.47,1287.16 7212.56,1272.96 7166.21,1260.29 7123.58,1248.59 7098.62,1241.82 7069.45,1233.72 7051.01,1228.70 7037.49,1225.04 7016.41,1219.27 6979.38,1209.11 6953.82,1202.08 6881.90,1182.39 6773.27,1152.75 6693.72,1131.02 6625.38,1112.41 6555.95,1093.42 6420.71,1056.44 6382.70,1046.07 6318.34,1028.48 6299.57,1023.31 6272.93,1016.02 6243.08,1007.82 6202.56,996.77 6157.52,984.37 6137.57,978.88 6110.89,971.56 6078.34,962.72 6060.00,957.74 6045.23,953.72 6040.82,952.53">
        <lane id="507.0_0" index="0" disallow="all" speed="13.89" length="1330.29" width="3.66" shape="7321.60,1312.25 7287.44,1302.92 7262.06,1295.99 7210.15,1281.79 7163.79,1269.11 7121.17,1257.42 7096.20,1250.64 7067.02,1242.54 7048.61,1237.53 7035.08,1233.87 7013.99,1228.09 6976.96,1217.93 6951.40,1210.90 6879.49,1191.22 6770.86,1161.58 6691.31,1139.85 6622.97,1121.24 6553.54,1102.25 6418.30,1065.27 6380.29,1054.90 6315.92,1037.31 6297.15,1032.13 6270.51,1024.84 6240.67,1016.65 6200.14,1005.59 6155.09,993.19 6135.15,987.70 6108.48,980.39 6075.94,971.55 6057.60,966.57 6042.83,962.55 6038.44,961.36" type="shoulder"/>
        <lane id="507.0_1" index="1" speed="13.89" length="1330.29" width="3.66" shape="7322.56,1308.72 7288.40,1299.39 7263.02,1292.46 7211.11,1278.26 7164.76,1265.58 7122.13,1253.89 7097.17,1247.11 7067.99,1239.01 7049.57,1234.00 7036.05,1230.34 7014.96,1224.56 6977.93,1214.40 6952.37,1207.37 6880.45,1187.69 6771.83,1158.05 6692.28,1136.32 6623.94,1117.71 6554.50,1098.72 6419.26,1061.74 6381.25,1051.37 6316.89,1033.78 6298.12,1028.60 6271.48,1021.31 6241.63,1013.12 6201.11,1002.06 6156.06,989.66 6136.12,984.17 6109.45,976.86 6076.90,968.02 6058.56,963.04 6043.79,959.02 6039.39,957.83"/>
        <lane id="507.0_2" index="2" speed="13.89" length="1330.29" width="3.66" shape="7323.53,1305.19 7289.37,1295.86 7263.99,1288.93 7212.08,1274.73 7165.73,1262.05 7123.10,1250.36 7098.14,1243.58 7068.96,1235.48 7050.53,1230.47 7037.01,1226.81 7015.93,1221.03 6978.90,1210.87 6953.34,1203.84 6881.42,1184.16 6772.79,1154.52 6693.24,1132.79 6624.90,1114.18 6555.47,1095.19 6420.23,1058.21 6382.22,1047.84 6317.86,1030.25 6299.09,1025.07 6272.45,1017.78 6242.60,1009.59 6202.08,998.53 6157.04,986.13 6137.09,980.64 6110.41,973.33 6077.86,964.49 6059.52,959.51 6044.75,955.49 6040.34,954.30"/>
    </edge>
    <edge id="508.0" from="junction_39" to="node_508_end" priority="-1" type="town" shape="6010.45,944.21 5988.03,938.03 5961.86,930.84 5921.28,919.76 5894.47,912.48">
        <lane id="508.0_0" index="0" disallow="all" speed="13.89" length="120.06" width="3.66" shape="6006.07,960.09 5983.66,953.91 5957.51,946.73 5916.95,935.65 5890.30,928.41" type="shoulder"/>
        <lane id="508.0_1" index="1" speed="13.89" length="120.06" width="3.66" shape="6007.05,956.56 5984.63,950.38 5958.48,943.20 5917.91,932.12 5891.26,924.88"/>
        <lane id="508.0_2" index="2" speed="13.89" length="120.06" width="3.66" shape="6008.02,953.03 5985.60,946.85 5959.45,939.67 5918.88,928.59 5892.22,921.35"/>
        <lane id="508.0_3" index="3" speed="13.89" length="120.06" width="3.66" shape="6008.99,949.50 5986.57,943.32 5960.41,936.14 5919.84,925.06 5893.17,917.82"/>
        <lane id="508.0_4" index="4" speed="13.89" length="120.06" width="3.66" shape="6009.96,945.97 5987.55,939.79 5961.38,932.61 5920.80,921.53 5894.13,914.28"/>
    </edge>
    <edge id="513.0" from="junction_101" to="node_513_end" priority="-1" type="town" shape="7374.01,1324.68 7365.47,1322.54 7359.45,1321.05 7346.58,1318.16 7338.15,1316.40 7333.36,1315.49 7322.76,1313.52">
        <lane id="513.0_0" index="0" speed="13.89" length="52.19" width="3.66" shape="7373.57,1326.46 7365.03,1324.32 7359.03,1322.83 7346.19,1319.95 7337.79,1318.19 7333.02,1317.29 7322.58,1315.35"/>
    </edge>
    <edge id="516.0" from="node_516_start" to="junction_101" priority="-1" type="town" shape="10035.41,1801.28 10014.80,1800.91 9979.47,1800.24 9950.81,1799.67 9903.73,1798.71 9868.19,1797.96 9836.00,1797.30 9803.06,1796.66 9774.93,1796.15 9742.10,1795.52 9713.24,1794.99 9684.67,1794.46 9680.77,1794.38 9673.27,1794.25 9653.55,1793.90 9618.94,1793.24 9591.89,1792.71 9569.59,1792.30 9540.77,1791.73 9501.46,1790.92 9463.71,1790.12 9437.55,1789.61 9398.87,1788.77 9354.00,1787.69 9307.50,1786.61 9270.43,1785.69 9229.44,1784.22 9209.38,1783.07 9193.43,1782.05 9176.84,1780.82 9160.77,1779.46 9145.51,1778.03 9119.13,1775.02 9097.32,1772.25 9075.63,1769.20 9042.76,1764.18 9015.74,1759.67 8989.24,1754.81 8975.62,1752.15 8961.82,1749.26 8945.02,1745.57 8921.56,1740.18 8894.51,1733.49 8863.28,1725.24 8795.14,1706.74 8712.23,1684.31 8655.60,1668.71 8584.74,1649.30 8537.33,1636.27 8454.33,1613.50 8376.10,1592.19 8336.14,1581.21 8289.58,1568.42 8266.37,1562.08 8208.43,1546.16 8158.41,1532.41 8092.94,1514.44 8027.53,1496.54 7957.23,1477.31 7879.82,1456.08 7781.75,1429.21 7692.31,1404.67 7596.90,1378.46 7485.31,1351.98">
        <lane id="516.0_0" index="0" disallow="all" speed="13.89" length="2606.63" width="3.66" shape="10035.25,1810.43 10014.63,1810.06 9979.29,1809.39 9950.63,1808.82 9903.54,1807.86 9868.00,1807.11 9835.82,1806.45 9802.89,1805.81 9774.76,1805.30 9741.93,1804.67 9713.07,1804.14 9684.50,1803.61 9680.60,1803.53 9673.11,1803.40 9653.38,1803.05 9618.76,1802.39 9591.72,1801.86 9569.42,1801.45 9540.59,1800.88 9501.27,1800.07 9463.52,1799.27 9437.36,1798.76 9398.66,1797.92 9353.78,1796.84 9307.28,1795.76 9270.15,1794.84 9229.02,1793.36 9208.83,1792.20 9192.80,1791.18 9176.12,1789.94 9159.96,1788.57 9144.57,1787.13 9118.04,1784.10 9096.11,1781.32 9074.30,1778.25 9041.32,1773.22 9014.16,1768.68 8987.54,1763.80 8973.81,1761.12 8959.90,1758.21 8943.01,1754.50 8919.44,1749.08 8892.24,1742.36 8860.91,1734.08 8792.75,1715.57 8709.82,1693.14 8653.18,1677.53 8582.32,1658.12 8534.91,1645.09 8451.92,1622.33 8373.69,1601.02 8333.72,1590.03 8287.16,1577.24 8263.95,1570.90 8206.01,1554.98 8155.99,1541.23 8090.52,1523.26 8025.12,1505.37 7954.81,1486.13 7877.40,1464.90 7779.33,1438.03 7689.89,1413.49 7594.63,1387.33 7483.20,1360.89" type="shoulder"/>
        <lane id="516.0_1" index="1" speed="13.89" length="2606.63" width="3.66" shape="10035.31,1806.77 10014.70,1806.40 9979.36,1805.73 9950.70,1805.16 9903.62,1804.20 9868.08,1803.45 9835.89,1802.79 9802.96,1802.15 9774.83,1801.64 9742.00,1801.01 9713.14,1800.48 9684.57,1799.95 9680.67,1799.87 9673.17,1799.74 9653.45,1799.39 9618.83,1798.73 9591.79,1798.20 9569.49,1797.79 9540.66,1797.22 9501.35,1796.41 9463.60,1795.61 9437.44,1795.10 9398.75,1794.26 9353.87,1793.18 9307.37,1792.10 9270.26,1791.18 9229.19,1789.70 9209.05,1788.55 9193.05,1787.53 9176.41,1786.29 9160.28,1784.93 9144.94,1783.49 9118.47,1780.47 9096.59,1777.69 9074.83,1774.63 9041.89,1769.60 9014.79,1765.08 8988.22,1760.20 8974.53,1757.53 8960.67,1754.63 8943.82,1750.93 8920.29,1745.52 8893.15,1738.81 8861.86,1730.54 8793.71,1712.04 8710.79,1689.61 8654.15,1674.00 8583.29,1654.59 8535.88,1641.56 8452.88,1618.80 8374.65,1597.49 8334.69,1586.50 8288.13,1573.71 8264.92,1567.37 8206.98,1551.45 8156.96,1537.70 8091.49,1519.73 8026.08,1501.84 7955.78,1482.60 7878.37,1461.37 7780.30,1434.50 7690.86,1409.96 7595.54,1383.78 7484.05,1357.32"/>
        <lane id="516.0_2" index="2" speed="13.89" length="2606.63" width="3.66" shape="10035.38,1803.11 10014.77,1802.74 9979.44,1802.07 9950.77,1801.50 9903.69,1800.54 9868.15,1799.79 9835.96,1799.13 9803.03,1798.49 9774.90,1797.98 9742.07,1797.35 9713.21,1796.82 9684.64,1796.29 9680.74,1796.21 9673.24,1796.08 9653.52,1795.73 9618.91,1795.07 9591.86,1794.54 9569.56,1794.13 9540.73,1793.56 9501.42,1792.75 9463.67,1791.95 9437.51,1791.44 9398.83,1790.60 9353.96,1789.52 9307.46,1788.44 9270.38,1787.52 9229.36,1786.05 9209.27,1784.90 9193.30,1783.88 9176.70,1782.64 9160.61,1781.28 9145.32,1779.85 9118.91,1776.84 9097.08,1774.06 9075.37,1771.01 9042.47,1765.99 9015.43,1761.47 8988.90,1756.61 8975.26,1753.94 8961.44,1751.05 8944.62,1747.36 8921.14,1741.96 8894.06,1735.26 8862.81,1727.01 8794.66,1708.51 8711.75,1686.08 8655.12,1670.47 8584.26,1651.06 8536.85,1638.03 8453.85,1615.27 8375.62,1593.96 8335.66,1582.97 8289.10,1570.18 8265.89,1563.84 8207.95,1547.92 8157.93,1534.17 8092.46,1516.20 8027.05,1498.31 7956.75,1479.07 7879.34,1457.84 7781.27,1430.97 7691.83,1406.43 7596.45,1380.23 7484.89,1353.76"/>
    </edge>
    <edge id="520.0" from="node_513_end" to="node_520_end" priority="-1" type="town" shape="7322.76,1313.52 7313.01,1311.92 7304.38,1310.52 7294.62,1309.03 7286.13,1307.85 7275.81,1306.44 7263.55,1304.97 7254.71,1304.13 7244.29,1303.41 7234.77,1302.89 7224.34,1302.58 7213.55,1302.43 7202.54,1302.46 7187.89,1302.80 7169.95,1303.60 7159.80,1304.14">
        <lane id="520.0_0" index="0" speed="13.89" length="163.15" width="3.66" shape="7322.31,1315.30 7312.72,1313.73 7304.10,1312.33 7294.36,1310.84 7285.88,1309.66 7275.58,1308.26 7263.36,1306.79 7254.56,1305.95 7244.18,1305.24 7234.69,1304.72 7224.30,1304.41 7213.54,1304.26 7202.56,1304.29 7187.95,1304.63 7170.04,1305.43 7159.90,1305.97"/>
    </edge>
    <edge id="521.0" from="node_521_start" to="junction_39" priority="-1" type="town" shape="6207.07,1054.12 6194.01,1044.59 6181.28,1035.84 6164.41,1024.81 6152.93,1017.73 6141.01,1010.64 6127.18,1002.89 6116.21,996.94 6102.29,989.93 6093.27,985.58 6082.53,980.65 6073.77,976.82 6059.92,971.03 6044.64,964.90 6037.67,962.12">
        <lane id="521.0_0" index="0" speed="13.89" length="192.50" width="3.66" shape="6203.84,1058.56 6190.84,1049.07 6178.22,1040.40 6161.47,1029.44 6150.09,1022.43 6138.27,1015.39 6124.53,1007.70 6113.67,1001.81 6099.86,994.85 6090.93,990.55 6080.29,985.66 6071.61,981.87 6057.84,976.11 6042.60,970.00 6035.64,967.22"/>
        <lane id="521.0_1" index="1" speed="13.89" length="192.50" width="3.66" shape="6205.99,1055.60 6192.95,1046.08 6180.26,1037.36 6163.43,1026.35 6151.98,1019.30 6140.10,1012.22 6126.30,1004.49 6115.36,998.56 6101.48,991.57 6092.49,987.24 6081.78,982.32 6073.05,978.50 6059.23,972.72 6043.96,966.60 6036.99,963.82"/>
    </edge>
    <edge id="523.0" from="node_523_start" to="node_523_end" priority="-1" type="town" shape="4786.79,609.56 4785.21,609.12 4764.51,603.46 4725.14,592.64 4709.92,588.48 4703.37,586.65 4693.10,583.79 4681.24,580.54 4666.66,576.57 4651.52,572.37 4634.18,567.70 4620.69,564.07 4606.67,560.26 4590.02,555.72 4563.57,548.52 4540.53,542.13 4520.38,536.61 4504.86,532.38 4488.67,527.86 4472.63,523.44 4449.72,517.12 4431.46,512.12 4411.88,506.77 4390.22,500.89 4369.22,495.16 4345.15,488.47 4320.96,481.85 4299.88,476.06 4274.34,469.05 4255.66,463.99 4237.14,458.91 4215.95,453.09 4211.04,451.76 4193.32,446.92 4172.31,441.19 4153.00,435.85 4130.14,429.58 4107.19,423.37 4081.42,416.26 4054.87,408.95 4027.12,401.38 4002.01,394.52 3979.88,388.49 3962.93,383.85 3937.74,376.84 3917.45,371.38 3899.27,366.39 3876.15,359.99 3851.44,353.28 3819.88,344.57 3794.39,337.60 3775.87,332.58 3757.26,327.50 3742.24,323.37 3716.94,316.38 3702.37,312.43 3677.11,305.55 3647.63,297.54 3631.38,293.16 3606.21,286.23 3578.17,278.46 3531.59,265.78 3488.17,253.94 3456.67,245.26 3426.42,236.95 3401.12,229.98 3368.88,221.15 3350.53,216.08 3331.66,210.87 3307.27,204.26 3274.67,195.31 3247.76,187.92 3214.10,178.68 3197.49,174.16 3178.74,169.06 3167.52,166.07 3157.02,163.20 3142.39,159.17 3118.96,152.71 3094.49,146.01 3087.26,143.98">
        <lane id="523.0_0" index="0" disallow="all" speed="13.89" length="1754.20" width="3.66" shape="4780.53,617.33 4762.09,612.28 4722.72,601.46 4707.49,597.30 4700.91,595.46 4690.67,592.61 4678.83,589.37 4664.24,585.39 4649.11,581.20 4631.80,576.54 4618.30,572.90 4604.27,569.09 4587.62,564.55 4561.15,557.34 4538.10,550.95 4517.97,545.44 4502.43,541.20 4486.23,536.68 4470.20,532.26 4447.30,525.94 4429.05,520.95 4409.48,515.60 4387.82,509.72 4366.79,503.98 4342.72,497.29 4318.54,490.67 4297.46,484.88 4271.93,477.88 4253.25,472.82 4234.72,467.73 4213.53,461.91 4208.63,460.59 4190.91,455.75 4169.89,450.01 4150.57,444.67 4127.74,438.41 4104.78,432.20 4078.99,425.08 4052.45,417.77 4024.71,410.21 3999.60,403.35 3977.47,397.32 3960.50,392.67 3935.33,385.67 3915.05,380.21 3896.84,375.21 3873.73,368.81 3849.02,362.11 3817.46,353.39 3791.99,346.43 3773.47,341.41 3754.84,336.33 3739.81,332.19 3714.52,325.20 3699.97,321.26 3674.71,314.38 3645.24,306.37 3628.98,301.99 3603.77,295.05 3575.75,287.28 3529.19,274.61 3485.75,262.76 3454.24,254.08 3423.99,245.77 3398.70,238.80 3366.46,229.97 3348.09,224.90 3329.25,219.70 3304.86,213.09 3272.25,204.13 3245.34,196.74 3211.69,187.51 3195.09,182.99 3176.36,177.89 3165.14,174.90 3154.60,172.02 3139.96,167.99 3116.54,161.53 3092.06,154.83 3088.64,153.87" type="shoulder"/>
        <lane id="523.0_1" index="1" speed="13.89" length="1754.20" width="3.66" shape="4781.50,613.80 4763.06,608.75 4723.69,597.93 4708.46,593.77 4701.90,591.94 4691.64,589.08 4679.79,585.84 4665.21,581.86 4650.07,577.67 4632.75,573.00 4619.26,569.37 4605.23,565.56 4588.58,561.02 4562.12,553.81 4539.07,547.42 4518.93,541.91 4503.40,537.67 4487.20,533.15 4471.17,528.73 4448.27,522.41 4430.01,517.42 4410.44,512.07 4388.78,506.19 4367.76,500.45 4343.69,493.76 4319.51,487.14 4298.43,481.35 4272.90,474.35 4254.22,469.29 4235.69,464.20 4214.50,458.38 4209.60,457.06 4191.88,452.22 4170.86,446.48 4151.54,441.14 4128.70,434.88 4105.74,428.67 4079.96,421.55 4053.42,414.24 4025.68,406.68 4000.57,399.82 3978.43,393.79 3961.47,389.14 3936.29,382.14 3916.01,376.68 3897.81,371.68 3874.70,365.28 3849.99,358.58 3818.43,349.86 3792.95,342.90 3774.43,337.88 3755.81,332.80 3740.78,328.66 3715.49,321.67 3700.93,317.73 3675.67,310.85 3646.20,302.84 3629.94,298.46 3604.75,291.52 3576.72,283.75 3530.15,271.08 3486.72,259.23 3455.21,250.55 3424.96,242.24 3399.67,235.27 3367.43,226.44 3349.07,221.37 3330.21,216.17 3305.83,209.56 3273.22,200.60 3246.31,193.21 3212.65,183.98 3196.05,179.46 3177.31,174.36 3166.09,171.37 3155.57,168.49 3140.93,164.46 3117.51,158.00 3093.03,151.30 3089.62,150.35"/>
        <lane id="523.0_2" index="2" speed="13.89" length="1754.20" width="3.66" shape="4782.46,610.27 4764.03,605.22 4724.66,594.40 4709.44,590.24 4702.88,588.41 4692.61,585.55 4680.76,582.31 4666.18,578.33 4651.04,574.14 4633.71,569.47 4620.21,565.84 4606.19,562.03 4589.54,557.49 4563.09,550.28 4540.04,543.89 4519.90,538.38 4504.37,534.14 4488.18,529.62 4472.14,525.20 4449.24,518.88 4430.98,513.89 4411.40,508.54 4389.74,502.66 4368.73,496.92 4344.66,490.23 4320.48,483.61 4299.40,477.82 4273.86,470.82 4255.18,465.76 4236.66,460.67 4215.47,454.85 4210.56,453.53 4192.84,448.69 4171.83,442.95 4152.52,437.61 4129.66,431.35 4106.71,425.14 4080.93,418.02 4054.39,410.71 4026.64,403.15 4001.53,396.29 3979.40,390.26 3962.44,385.61 3937.26,378.61 3916.97,373.15 3898.78,368.15 3875.67,361.75 3850.96,355.05 3819.40,346.33 3793.91,339.37 3775.39,334.35 3756.78,329.27 3741.75,325.13 3716.46,318.14 3701.89,314.20 3676.63,307.32 3647.15,299.31 3630.90,294.93 3605.72,287.99 3577.69,280.22 3531.11,267.55 3487.69,255.70 3456.19,247.02 3425.94,238.71 3400.64,231.74 3368.40,222.91 3350.04,217.84 3331.18,212.64 3306.79,206.03 3274.19,197.07 3247.28,189.68 3213.62,180.45 3197.01,175.93 3178.26,170.83 3167.04,167.84 3156.54,164.96 3141.90,160.93 3118.48,154.47 3094.00,147.77 3090.61,146.82"/>
    </edge>
    <edge id="524.0" from="node_524_start" to="node_524_end" priority="-1" type="town" shape="5660.23,848.54 5641.98,843.66 5625.35,839.07 5604.48,833.39 5591.59,829.86 5580.92,826.94 5565.42,822.68 5552.71,819.20">
        <lane id="524.0_0" index="0" disallow="all" speed="13.89" length="111.18" width="3.66" shape="5655.81,864.41 5637.66,859.55 5621.00,854.96 5600.15,849.28 5587.24,845.75 5576.56,842.82 5561.06,838.56 5548.51,835.13" type="shoulder"/>
        <lane id="524.0_1" index="1" speed="13.89" length="111.18" width="3.66" shape="5656.76,860.87 5638.62,856.02 5621.97,851.43 5601.11,845.75 5588.21,842.22 5577.53,839.29 5562.03,835.03 5549.47,831.60"/>
        <lane id="524.0_2" index="2" speed="13.89" length="111.18" width="3.66" shape="5657.70,857.34 5639.58,852.49 5622.93,847.90 5602.07,842.22 5589.17,838.69 5578.50,835.76 5563.00,831.50 5550.44,828.07"/>
        <lane id="524.0_3" index="3" speed="13.89" length="111.18" width="3.66" shape="5658.65,853.80 5640.54,848.96 5623.90,844.37 5603.04,838.69 5590.14,835.16 5579.47,832.23 5563.97,827.97 5551.41,824.54"/>
        <lane id="524.0_4" index="4" speed="13.89" length="111.18" width="3.66" shape="5659.59,850.26 5641.50,845.43 5624.87,840.84 5604.00,835.16 5591.11,831.63 5580.44,828.70 5564.94,824.44 5552.37,821.01"/>
    </edge>
    <edge id="525.0" from="node_508_end" to="node_525_end" priority="-1" type="town" shape="5894.47,912.48 5864.27,904.26 5832.41,895.56 5798.34,886.26 5771.08,878.80 5745.72,871.90 5737.72,869.69 5724.29,865.99 5721.31,865.19">
        <lane id="525.0_0" index="0" disallow="all" speed="13.89" length="179.18" width="3.66" shape="5890.00,928.33 5859.94,920.15 5828.07,911.45 5794.00,902.15 5766.74,894.69 5741.38,887.79 5733.34,885.57 5719.94,881.87 5717.18,881.13" type="shoulder"/>
        <lane id="525.0_1" index="1" speed="13.89" length="179.18" width="3.66" shape="5890.96,924.80 5860.90,916.62 5829.04,907.92 5794.96,898.62 5767.71,891.16 5742.35,884.26 5734.32,882.04 5720.90,878.34 5718.13,877.60"/>