<?xml version='1.0' encoding='utf-8'?>
<connections>
    <connection from="516.0" to="504.0" fromLane="2" toLane="1" />
    <connection from="516.0" to="504.0" fromLane="1" toLane="0" />
    <connection from="516.0" to="513.0" fromLane="1" toLane="0" />
    <connection from="551.0" to="550.0" fromLane="2" toLane="2" />
    <connection from="551.0" to="550.0" fromLane="1" toLane="1" />
    <connection from="551.0" to="535.0" fromLane="0" toLane="0" />
    <connection from="507.0" to="508.0" fromLane="1" toLane="3" />
    <connection from="507.0" to="508.0" fromLane="2" toLane="4" />
    <connection from="550.0" to="534.0" fromLane="2" toLane="2" />
    <connection from="550.0" to="534.0" fromLane="1" toLane="1" />
</connections>