<?xml version='1.0' encoding='utf-8'?>
<connections>
    <connection from="390.0" to="392.0" fromLane="1" toLane="1" />
    <connection from="390.0" to="392.0" fromLane="2" toLane="2" />
    <connection from="382.0" to="389.0" fromLane="1" toLane="0" />
    <connection from="382.0" to="387.0" fromLane="2" toLane="1" />
    <connection from="382.0" to="387.0" fromLane="1" toLane="0" />
</connections>