<?xml version="1.0" encoding="UTF-8"?>

<!-- generated on 2025-10-19 17:33:42 by Eclipse SUMO netconvert Version 1.23.1
<netconvertConfiguration xmlns:xsi="http://www.w3.org/2001/XMLSchema-instance" xsi:noNamespaceSchemaLocation="http://sumo.dlr.de/xsd/netconvertConfiguration.xsd">

    <input>
        <node-files value="/home/sdai/harry/TeraSim/jupiter/wb/jupiter_wb_tiles/tile_0068/tile_0068.nod.xml"/>
        <edge-files value="/home/sdai/harry/TeraSim/jupiter/wb/jupiter_wb_tiles/tile_0068/tile_0068.edg.xml"/>
        <connection-files value="/home/sdai/harry/TeraSim/jupiter/wb/jupiter_wb_tiles/tile_0068/tile_0068.con.xml"/>
    </input>

    <output>
        <output-file value="/home/sdai/harry/TeraSim/jupiter/wb/jupiter_wb_tiles/tile_0068/tile_0068.net.xml"/>
        <output.street-names value="true"/>
        <output.original-names value="true"/>
    </output>

    <processing>
        <geometry.remove value="false"/>
        <geometry.min-dist value="0.5"/>
        <edges.join value="false"/>
    </processing>

    <junctions>
        <no-internal-links value="false"/>
        <no-turnarounds value="true"/>
        <junctions.join value="true"/>
        <junctions.join-dist value="10"/>
        <junctions.corner-detail value="5"/>
        <junctions.internal-link-detail value="5"/>
        <junctions.limit-turn-speed value="5.5"/>
        <rectangular-lane-cut value="true"/>
        <check-lane-foes.all value="true"/>
    </junctions>

</netconvertConfiguration>
-->

<net version="1.20" junctionCornerDetail="5" junctionLinkDetail="5" rectangularLaneCut="true" limitTurnSpeed="5.50" checkLaneFoesAll="1" xmlns:xsi="http://www.w3.org/2001/XMLSchema-instance" xsi:noNamespaceSchemaLocation="http://sumo.dlr.de/xsd/net_file.xsd">

    <location netOffset="-645210.70,-3280900.17" convBoundary="0.00,0.00,18603.99,2403.29" origBoundary="0.00,0.00,663814.69,3283303.46" projParameter="!"/>

    <edge id=":junction_30_0" function="internal">
        <lane id=":junction_30_0_0" index="0" speed="13.89" length="35.44" width="3.66" shape="7648.10,1031.19 7613.43,1023.81"/>
    </edge>
    <edge id=":junction_30_1" function="internal">
        <lane id=":junction_30_1_0" index="0" speed="13.89" length="35.75" width="3.66" shape="7649.35,1025.01 7613.93,1020.18"/>
        <lane id=":junction_30_1_1" index="1" speed="13.89" length="35.75" width="3.66" shape="7649.84,1021.38 7614.42,1016.55"/>
    </edge>
    <edge id=":junction_93_0" function="internal">
        <lane id=":junction_93_0_0" index="0" speed="13.89" length="92.63" width="3.66" shape="8755.89,1174.76 8735.91,1172.59 8706.07,1169.85 8678.08,1167.46 8663.65,1166.37"/>
    </edge>
    <edge id=":junction_93_1" function="internal">
        <lane id=":junction_93_1_0" index="0" speed="13.89" length="92.80" width="3.66" shape="8755.89,1174.76 8663.94,1162.31"/>
        <lane id=":junction_93_1_1" index="1" speed="13.89" length="92.80" width="3.66" shape="8756.40,1171.13 8664.43,1158.69"/>
    </edge>
    <edge id=":node_387_end_0" function="internal">
        <lane id=":node_387_end_0_0" index="0" speed="13.89" length="3.00" width="3.66" shape="8642.73,1159.48 8639.76,1159.09"/>
        <lane id=":node_387_end_0_1" index="1" speed="13.89" length="3.00" width="3.66" shape="8643.21,1155.85 8640.24,1155.46"/>
    </edge>
    <edge id=":node_388_start_0" function="internal">
        <lane id=":node_388_start_0_0" index="0" speed="13.89" length="0.30" width="3.66" shape="8640.66,1165.69 8640.36,1165.69"/>
    </edge>
    <edge id=":node_392_end_0" function="internal">
        <lane id=":node_392_end_0_0" index="0" speed="13.89" length="3.30" width="3.66" shape="7565.54,1017.30 7564.60,1017.06 7564.01,1016.72 7563.41,1016.38 7562.48,1016.12"/>
    </edge>
    <edge id=":node_392_end_1" function="internal">
        <lane id=":node_392_end_1_0" index="0" speed="13.89" length="3.00" width="3.66" shape="7566.03,1013.67 7563.05,1013.27"/>
        <lane id=":node_392_end_1_1" index="1" speed="13.89" length="3.00" width="3.66" shape="7566.52,1010.04 7563.55,1009.64"/>
    </edge>
    <edge id=":node_395_start_0" function="internal">
        <lane id=":node_395_start_0_0" index="0" speed="13.89" length="8.03" width="3.66" shape="7444.15,997.34 7436.21,996.14"/>
    </edge>
    <edge id=":node_395_start_1" function="internal">
        <lane id=":node_395_start_1_0" index="0" speed="13.89" length="8.00" width="3.66" shape="7444.13,997.21 7436.21,996.14"/>
        <lane id=":node_395_start_1_1" index="1" speed="13.89" length="8.00" width="3.66" shape="7444.63,993.59 7436.70,992.51"/>
    </edge>

    <edge id="382.0" from="node_382_start" to="junction_93" priority="-1" type="town" shape="18603.99,2403.29 18599.48,2402.80 18589.79,2401.72 18580.03,2400.66 18570.23,2399.59 18558.29,2398.29 18547.77,2397.16 18538.03,2396.09 18525.71,2394.73 18515.75,2393.63 18500.21,2391.93 18487.41,2390.54 18462.31,2387.79 18448.28,2386.23 18437.17,2385.00 18423.89,2383.54 18412.24,2382.28 18403.97,2381.37 18390.90,2379.94 18382.45,2379.00 18371.11,2377.72 18361.50,2376.66 18351.45,2375.55 18340.93,2374.40 18334.28,2373.66 18323.01,2372.42 18309.93,2370.99 18302.35,2370.13 18291.81,2368.97 18282.98,2368.02 18275.79,2367.22 18263.35,2365.87 18253.76,2364.85 18244.57,2363.84 18235.77,2362.84 18225.21,2361.66 18211.43,2360.18 18199.62,2358.89 18192.37,2358.11 18186.19,2357.42 18181.13,2356.85 18174.74,2356.16 18166.95,2355.34 18156.92,2354.22 18145.47,2352.97 18135.65,2351.88 18129.54,2351.21 18120.25,2350.21 18105.65,2348.60 18092.05,2347.09 18081.34,2345.88 18068.07,2344.44 18056.65,2343.22 18044.07,2341.81 18034.05,2340.72 18027.80,2340.03 18019.83,2339.13 18010.13,2338.03 18002.49,2337.19 17991.91,2336.03 17981.71,2334.90 17973.14,2333.97 17965.06,2333.06 17954.95,2331.93 17945.75,2330.93 17938.79,2330.16 17929.90,2329.17 17921.79,2328.30 17912.22,2327.26 17903.15,2326.25 17892.65,2325.13 17887.14,2324.52 17877.69,2323.47 17868.90,2322.53 17859.82,2321.53 17852.74,2320.75 17846.73,2320.10 17840.75,2319.42 17833.34,2318.60 17826.18,2317.83 17820.23,2317.18 17810.05,2316.07 17803.02,2315.28 17798.58,2314.80 17792.70,2314.17 17785.52,2313.38 17774.65,2312.19 17763.43,2310.95 17753.16,2309.84 17744.09,2308.85 17735.24,2307.91 17724.32,2306.73 17714.62,2305.69 17703.54,2304.46 17695.98,2303.63 17688.41,2302.79 17678.77,2301.77 17667.88,2300.56 17657.17,2299.39 17647.38,2298.29 17638.23,2297.28 17628.03,2296.14 17619.15,2295.14 17607.64,2293.86 17600.54,2293.09 17593.57,2292.33 17585.08,2291.40 17576.10,2290.40 17568.40,2289.53 17555.44,2288.13 17543.10,2286.79 17532.60,2285.64 17520.25,2284.30 17508.57,2283.03 17494.26,2281.50 17480.26,2280.00 17468.01,2278.68 17453.56,2277.11 17442.34,2275.89 17428.92,2274.44 17417.35,2273.20 17408.51,2272.19 17397.00,2270.93 17389.22,2270.08 17383.05,2269.39 17376.82,2268.72 17366.14,2267.54 17355.79,2266.38 17342.49,2264.88 17327.87,2263.26 17315.60,2261.91 17305.78,2260.80 17294.03,2259.49 17287.38,2258.73 17280.81,2258.00 17269.64,2256.73 17261.93,2255.88 17253.58,2254.97 17244.16,2253.91 17236.85,2253.09 17228.55,2252.16 17214.87,2250.65 17205.66,2249.64 17199.03,2248.91 17189.04,2247.81 17178.25,2246.63 17169.88,2245.71 17159.83,2244.59 17151.38,2243.64 17141.75,2242.58 17130.13,2241.32 17121.51,2240.35 17113.83,2239.50 17109.34,2238.99 17103.17,2238.30 17092.40,2237.13 17084.51,2236.28 17077.83,2235.55 17066.34,2234.28 17057.96,2233.35 17049.63,2232.47 17041.90,2231.61 17032.93,2230.63 17025.51,2229.82 17018.31,2229.03 17013.04,2228.44 17006.79,2227.77 16991.16,2226.05 16981.51,2225.05 16965.82,2223.33 16955.79,2222.26 16944.31,2220.98 16937.11,2220.20 16929.67,2219.37 16924.06,2218.76 16916.07,2217.88 16910.94,2217.32 16901.57,2216.28 16892.78,2215.32 16882.59,2214.20 16872.22,2213.04 16860.90,2211.81 16846.30,2210.20 16834.33,2208.87 16823.70,2207.72 16815.32,2206.81 16809.26,2206.12 16802.42,2205.41 16785.12,2203.50 16777.14,2202.62 16764.38,2201.26 16757.40,2200.50 16751.34,2199.84 16743.15,2198.90 16734.13,2197.88 16726.52,2197.01 16716.22,2195.91 16702.57,2194.42 16688.28,2192.84 16676.90,2191.60 16662.66,2190.03 16642.78,2187.85 16628.56,2186.25 16614.15,2184.68 16600.78,2183.20 16588.06,2181.81 16572.75,2180.12 16555.65,2178.23 16542.98,2176.80 16520.44,2174.36 16503.40,2172.55 16483.38,2170.37 16470.86,2168.96 16455.64,2167.30 16440.81,2165.66 16429.19,2164.39 16415.01,2162.83 16401.40,2161.35 16389.44,2160.04 16379.19,2158.94 16369.41,2157.88 16358.93,2156.74 16348.25,2155.59 16336.97,2154.35 16326.12,2153.13 16309.33,2151.28 16294.62,2149.69 16279.36,2148.01 16266.42,2146.60 16254.47,2145.27 16241.49,2143.82 16229.23,2142.45 16216.06,2141.01 16203.52,2139.60 16189.71,2138.10 16173.92,2136.38 16163.49,2135.25 16148.62,2133.61 16134.51,2132.11 16121.23,2130.65 16107.95,2129.20 16097.46,2128.05 16080.64,2126.22 16067.95,2124.86 16051.17,2123.05 16039.72,2121.81 16026.21,2120.31 16011.56,2118.68 15999.42,2117.33 15989.14,2116.17 15975.30,2114.66 15965.70,2113.60 15951.68,2112.07 15942.87,2111.06 15931.79,2109.85 15922.46,2108.79 15910.38,2107.44 15898.61,2106.13 15886.62,2104.82 15872.97,2103.29 15862.69,2102.15 15853.21,2101.12 15845.66,2100.28 15834.28,2099.02 15824.13,2097.90 15811.52,2096.49 15801.24,2095.36 15788.87,2093.99 15779.10,2092.92 15767.32,2091.63 15757.52,2090.57 15744.22,2089.09 15732.01,2087.74 15713.05,2085.65 15697.31,2083.94 15684.09,2082.49 15672.37,2081.17 15660.31,2079.85 15649.57,2078.64 15641.46,2077.73 15631.95,2076.69 15621.78,2075.57 15610.61,2074.34 15597.24,2072.87 15589.31,2072.02 15578.98,2070.91 15568.08,2069.68 15559.37,2068.73 15552.20,2067.96 15546.11,2067.28 15539.12,2066.53 15531.61,2065.70 15522.05,2064.67 15513.86,2063.77 15507.33,2063.06 15500.73,2062.36 15494.43,2061.65 15488.18,2061.00 15479.58,2060.05 15469.50,2058.95 15458.42,2057.74 15449.32,2056.75 15440.20,2055.76 15434.61,2055.14 15425.59,2054.14 15418.67,2053.39 15411.15,2052.55 15404.95,2051.89 15398.57,2051.21 15392.25,2050.51 15384.49,2049.68 15376.43,2048.81 15366.93,2047.75 15360.42,2047.06 15351.82,2046.13 15343.24,2045.19 15332.43,2044.03 15323.02,2043.01 15311.93,2041.79 15301.59,2040.66 15290.53,2039.48 15277.74,2038.09 15265.45,2036.71 15255.30,2035.60 15249.07,2034.93 15239.16,2033.83 15232.27,2033.09 15223.86,2032.16 15215.65,2031.28 15207.27,2030.36 15198.64,2029.43 15190.47,2028.52 15181.47,2027.54 15171.84,2026.48 15160.69,2025.26 15148.51,2023.94 15139.08,2022.90 15128.86,2021.78 15120.48,2020.86 15111.76,2019.91 15105.52,2019.25 15098.84,2018.50 15092.69,2017.84 15085.30,2017.03 15079.40,2016.40 15073.30,2015.74 15067.72,2015.12 15062.48,2014.55 15056.51,2013.92 15046.91,2012.84 15039.34,2012.00 15031.09,2011.10 15022.66,2010.18 15015.60,2009.40 15008.68,2008.67 15002.33,2007.98 14992.03,2006.86 14984.16,2006.01 14973.08,2004.80 14964.64,2003.88 14954.92,2002.84 14947.61,2002.03 14940.45,2001.23 14934.65,2000.60 14925.30,1999.56 14917.30,1998.69 14908.93,1997.78 14900.77,1996.90 14892.03,1995.94 14883.85,1995.03 14871.05,1993.64 14865.42,1993.02 14853.73,1991.72 14847.60,1991.02 14839.60,1990.15 14831.27,1989.27 14821.86,1988.23 14813.85,1987.36 14803.32,1986.22 14794.18,1985.21 14786.45,1984.36 14775.81,1983.19 14765.83,1982.09 14756.10,1981.04 14748.09,1980.17 14737.34,1979.00 14728.98,1978.06 14719.27,1977.00 14711.40,1976.15 14698.70,1974.75 14688.44,1973.60 14679.57,1972.62 14672.21,1971.81 14662.75,1970.75 14654.74,1969.88 14646.74,1969.00 14640.72,1968.34 14632.83,1967.47 14626.40,1966.75 14617.22,1965.76 14608.39,1964.80 14600.45,1963.92 14590.23,1962.81 14575.80,1961.24 14563.16,1959.86 14552.14,1958.65 14540.45,1957.39 14532.40,1956.51 14519.72,1955.13 14509.73,1954.05 14495.53,1952.48 14484.34,1951.26 14472.71,1949.99 14462.46,1948.87 14450.32,1947.57 14441.54,1946.64 14434.56,1945.86 14421.89,1944.50 14411.23,1943.33 14386.40,1940.64 14385.03,1940.48 14367.03,1938.53 14353.71,1937.08 14340.27,1935.62 14322.34,1933.66 14306.07,1931.88 14291.16,1930.25 14276.89,1928.71 14255.61,1926.38 14243.08,1924.99 14225.01,1923.03 14211.00,1921.49 14193.63,1919.59 14176.68,1917.71 14157.45,1915.59 14142.35,1913.90 14125.92,1912.09 14113.09,1910.68 14098.77,1909.10 14085.18,1907.61 14068.46,1905.77 14048.95,1903.61 14029.34,1901.44 14013.25,1899.67 13996.04,1897.76 13976.33,1895.62 13957.14,1893.50 13939.54,1891.49 13926.30,1890.05 13911.10,1888.39 13894.71,1886.60 13881.00,1885.14 13867.86,1883.73 13855.49,1882.36 13839.74,1880.66 13822.53,1878.82 13804.76,1876.91 13791.44,1875.48 13777.40,1873.97 13765.25,1872.65 13747.61,1870.77 13726.70,1868.47 13708.91,1866.53 13692.74,1864.78 13673.49,1862.65 13653.51,1860.47 13633.40,1858.25 13613.46,1856.06 13593.46,1853.84 13571.68,1851.44 13550.25,1849.11 13523.57,1846.10 13491.70,1842.58 13472.49,1840.50 13449.18,1837.94 13424.17,1835.19 13395.77,1832.06 13369.86,1829.23 13355.33,1827.64 13343.03,1826.29 13324.36,1824.23 13307.74,1822.40 13293.91,1820.87 13273.34,1818.57 13254.86,1816.53 13241.01,1814.98 13224.93,1813.22 13214.79,1812.13 13204.44,1811.01 13194.47,1809.94 13185.46,1808.93 13172.21,1807.48 13156.00,1805.72 13138.31,1803.82 13119.35,1801.84 13094.86,1799.15 13072.54,1796.71 13056.88,1795.02 13040.57,1793.22 13023.56,1791.36 13005.06,1789.35 12985.38,1787.19 12963.63,1784.81 12945.45,1782.80 12930.66,1781.18 12916.35,1779.62 12901.18,1777.96 12881.06,1775.75 12868.66,1774.39 12857.55,1773.21 12848.23,1772.18 12837.27,1770.97 12826.50,1769.77 12817.26,1768.76 12810.58,1768.02 12802.37,1767.14 12791.66,1765.92 12777.95,1764.42 12765.56,1763.06 12747.91,1761.12 12733.29,1759.51 12714.22,1757.41 12703.68,1756.25 12690.44,1754.78 12677.70,1753.41 12665.20,1752.03 12652.70,1750.68 12637.00,1748.93 12623.01,1747.41 12612.18,1746.24 12599.40,1744.84 12587.09,1743.46 12575.27,1742.15 12561.71,1740.67 12550.22,1739.41 12540.34,1738.33 12532.65,1737.47 12521.96,1736.28 12512.24,1735.23 12499.03,1733.82 12486.76,1732.48 12474.72,1731.17 12460.51,1729.62 12449.02,1728.36 12438.71,1727.22 12425.06,1725.75 12415.93,1724.73 12406.95,1723.74 12399.01,1722.85 12388.90,1721.74 12374.76,1720.19 12354.56,1717.97 12337.57,1716.13 12326.42,1714.90 12312.75,1713.43 12301.04,1712.12 12289.27,1710.85 12279.35,1709.74 12267.88,1708.48 12256.60,1707.25 12245.90,1706.07 12237.99,1705.22 12229.76,1704.30 12219.74,1703.19 12209.89,1702.14 12200.58,1701.12 12188.65,1699.80 12171.97,1698.00 12156.36,1696.27 12145.19,1695.04 12133.76,1693.76 12116.51,1691.89 12103.25,1690.45 12089.88,1689.00 12075.95,1687.47 12060.20,1685.74 12047.85,1684.40 12034.09,1682.88 12023.85,1681.75 12009.53,1680.18 11995.04,1678.57 11983.52,1677.30 11971.10,1675.95 11958.76,1674.59 11945.09,1673.09 11934.10,1671.90 11919.20,1670.25 11908.98,1669.14 11898.79,1667.99 11883.59,1666.33 11871.11,1664.95 11856.56,1663.35 11843.03,1661.88 11828.07,1660.23 11816.21,1658.93 11804.10,1657.57 11793.26,1656.37 11783.43,1655.34 11771.32,1654.04 11765.84,1653.45 11753.17,1652.07 11740.96,1650.76 11725.01,1648.99 11712.16,1647.60 11696.27,1645.85 11682.32,1644.32 11668.82,1642.86 11658.04,1641.67 11642.44,1639.98 11628.34,1638.46 11614.57,1636.95 11598.37,1635.19 11588.72,1634.13 11576.93,1632.85 11567.77,1631.85 11557.86,1630.77 11546.49,1629.51 11532.33,1627.96 11521.08,1626.73 11506.90,1625.17 11493.68,1623.74 11481.52,1622.39 11469.98,1621.14 11458.44,1619.88 11447.21,1618.64 11434.82,1617.29 11423.65,1616.08 11416.47,1615.30 11408.18,1614.42 11397.38,1613.26 11383.98,1611.77 11371.68,1610.40 11361.65,1609.30 11351.40,1608.17 11341.89,1607.12 11330.77,1605.89 11318.79,1604.57 11307.43,1603.33 11295.33,1601.96 11283.12,1600.61 11272.31,1599.42 11258.83,1597.97 11240.68,1595.95 11220.21,1593.72 11200.55,1591.60 11181.12,1589.42 11166.54,1587.86 11146.96,1585.69 11127.09,1583.51 11110.23,1581.63 11096.25,1580.12 11081.96,1578.58 11071.25,1577.38 11057.94,1575.90 11039.20,1573.83 11027.95,1572.56 11015.37,1571.13 11003.98,1569.81 10992.69,1568.48 10981.90,1567.18 10969.83,1565.75 10959.21,1564.46 10949.98,1563.36 10938.15,1561.88 10928.24,1560.64 10916.61,1559.17 10905.94,1557.77 10896.46,1556.44 10880.26,1554.13 10867.09,1552.20 10853.49,1550.14 10838.04,1547.69 10824.49,1545.49 10812.45,1543.51 10801.81,1541.71 10789.27,1539.54 10775.55,1537.17 10764.75,1535.28 10749.75,1532.64 10735.44,1530.05 10727.05,1528.56 10712.06,1525.79 10701.21,1523.79 10689.84,1521.69 10678.60,1519.64 10665.99,1517.29 10655.46,1515.29 10644.83,1513.33 10632.69,1511.07 10620.27,1508.78 10608.86,1506.63 10594.83,1504.06 10583.19,1501.93 10570.99,1499.65 10559.72,1497.58 10546.40,1495.12 10532.09,1492.53 10519.96,1490.30 10507.59,1488.00 10495.41,1485.76 10486.15,1484.05 10475.72,1482.11 10467.32,1480.55 10455.02,1478.27 10441.58,1475.77 10429.06,1473.47 10417.17,1471.26 10401.99,1468.47 10382.42,1464.87 10367.96,1462.18 10351.18,1459.09 10335.06,1456.11 10318.12,1452.97 10303.48,1450.26 10290.11,1447.80 10276.01,1445.19 10260.84,1442.39 10245.32,1439.52 10230.97,1436.86 10216.76,1434.25 10199.43,1431.02 10184.98,1428.38 10171.52,1425.93 10164.27,1424.59 10153.76,1422.63 10143.92,1420.82 10135.02,1419.18 10126.66,1417.63 10117.85,1415.99 10108.00,1414.17 10097.84,1412.30 10086.86,1410.28 10077.35,1408.51 10067.41,1406.67 10054.40,1404.26 10039.00,1401.41 10022.28,1398.30 10005.86,1395.28 9988.35,1392.08 9976.12,1389.83 9959.60,1386.79 9949.58,1384.93 9941.67,1383.45 9934.21,1382.08 9920.68,1379.62 9912.25,1378.08 9902.63,1376.30 9894.14,1374.72 9884.71,1372.99 9874.52,1371.13 9862.31,1368.87 9853.53,1367.25 9844.49,1365.60 9830.84,1363.07 9820.73,1361.21 9808.64,1358.98 9798.47,1357.09 9788.41,1355.19 9776.48,1353.00 9762.84,1350.46 9748.49,1347.78 9740.13,1346.23 9728.17,1344.03 9715.60,1341.68 9703.62,1339.47 9691.71,1337.25 9680.19,1335.10 9668.11,1332.88 9655.96,1330.63 9642.78,1328.19 9632.39,1326.27 9621.95,1324.32 9607.00,1321.54 9592.84,1318.92 9583.29,1317.14 9572.63,1315.18 9561.56,1313.12 9551.40,1311.20 9542.45,1309.56 9533.33,1307.88 9524.43,1306.22 9515.30,1304.54 9503.80,1302.41 9494.08,1300.61 9485.15,1298.98 9476.15,1297.29 9467.16,1295.62 9454.49,1293.30 9446.50,1291.80 9436.90,1290.05 9427.85,1288.39 9419.60,1286.85 9410.68,1285.21 9403.10,1283.79 9393.88,1282.11 9385.64,1280.62 9366.88,1277.11 9358.12,1275.52 9346.11,1273.28 9332.90,1270.85 9318.89,1268.27 9306.00,1265.91 9292.81,1263.46 9281.32,1261.33 9271.11,1259.45 9259.08,1257.23 9247.27,1255.07 9236.30,1253.02 9225.97,1251.11 9214.59,1248.99 9204.32,1247.11 9188.68,1244.23 9175.09,1241.70 9161.77,1239.23 9153.81,1237.77 9144.11,1235.97 9128.32,1233.03 9111.85,1229.97 9095.55,1226.95 9076.03,1223.34 9055.74,1219.57 9042.93,1217.21 9028.50,1214.57 9019.40,1212.86 9007.58,1210.69 8996.70,1208.71 8985.76,1206.69 8975.43,1204.81 8966.60,1203.25 8955.98,1201.33 8942.91,1199.04 8933.08,1197.29 8921.75,1195.29 8910.47,1193.32 8899.81,1191.48 8889.17,1189.66 8877.85,1187.74 8868.06,1186.13 8857.98,1184.47 8847.92,1182.86 8838.76,1181.40 8826.87,1179.52 8814.74,1177.68 8805.93,1176.36 8797.52,1175.14 8784.79,1173.31 8774.94,1171.90 8762.87,1170.19 8756.65,1169.32">