<?xml version='1.0' encoding='utf-8'?>
<edges>
    <edge id="266.0" from="j_merge_end_21" to="junction_81" numLanes="5" speed="13.89" type="town" shape="800816.41,3298168.87 800563.87,3298161.34 800563.87,3298161.34 800166.94,3298149.21">
        <lane index="0" width="3.66" type="shoulder" disallow="all" />
        <lane index="1" width="3.66" />
        <lane index="2" width="3.66" />
        <lane index="3" width="3.66" />
        <lane index="4" width="3.66" type="shoulder" disallow="all" />
    </edge>
    <edge id="269.0" from="j_merge_end_22" to="junction_82" numLanes="5" speed="13.89" type="town" shape="803591.35,3298252.43 803573.19,3298252.09 803573.19,3298252.09 802987.08,3298234.21 802987.08,3298234.21 802332.23,3298214.35 802332.23,3298214.35 802210.15,3298210.75">
        <lane index="0" width="3.66" type="shoulder" disallow="all" />
        <lane index="1" width="3.66" />
        <lane index="2" width="3.66" />
        <lane index="3" width="3.66" />
        <lane index="4" width="3.66" type="shoulder" disallow="all" />
    </edge>
    <edge id="278.0" from="node_278_start" to="j_merge_start_55" numLanes="1" speed="13.89" type="town" shape="797569.46,3298202.70 797423.70,3298126.12 797423.70,3298126.12 797399.91,3298117.18 797399.91,3298117.18 797373.03,3298110.65 797373.03,3298110.65 797350.51,3298107.44 797350.51,3298107.44 797333.96,3298105.94 797333.96,3298105.94 797311.96,3298105.44 797311.96,3298105.44 797280.36,3298106.48 797280.36,3298106.48 797255.42,3298108.16 797255.42,3298108.16 797217.83,3298111.64 797217.83,3298111.64 797079.43,3298126.21">
        <lane index="0" width="3.66" />
    </edge>
    <edge id="280.0" from="junction_86" to="node_280_end" numLanes="1" speed="13.89" type="town" shape="798233.66,3298104.83 798212.33,3298106.71 798212.33,3298106.71 798195.66,3298108.47 798195.66,3298108.47 798173.09,3298111.42 798173.09,3298111.42 798148.50,3298115.19">
        <lane index="0" width="3.66" />
    </edge>
    <edge id="282.0" from="junction_81" to="node_282_end" numLanes="1" speed="13.89" type="town" shape="800088.17,3298161.25 800070.69,3298162.36 800070.69,3298162.36 800040.81,3298165.34 800040.81,3298165.34 800008.36,3298170.16 800008.36,3298170.16 799968.28,3298176.83">
        <lane index="0" width="3.66" />
    </edge>
    <edge id="283.0" from="node_283_start" to="j_merge_start_21" numLanes="1" speed="13.89" type="town" shape="801359.56,3298305.35 801321.14,3298270.85 801321.14,3298270.85 801281.27,3298238.34 801281.27,3298238.34 801252.09,3298222.91 801252.09,3298222.91 801223.90,3298213.69 801223.90,3298213.69 801187.59,3298207.47 801187.59,3298207.47 801164.56,3298203.05 801164.56,3298203.05 801134.59,3298198.49 801134.59,3298198.49 801110.29,3298195.67 801110.29,3298195.67 801078.82,3298193.46 801078.82,3298193.46 800998.42,3298188.80">
        <lane index="0" width="3.66" />
    </edge>
    <edge id="286.0" from="junction_82" to="node_286_end" numLanes="1" speed="13.89" type="town" shape="802147.42,3298223.23 802031.14,3298227.58 802031.14,3298227.58 801915.24,3298232.22">
        <lane index="0" width="3.66" />
    </edge>
    <edge id="311.0" from="node_311_start" to="j_merge_start_55" numLanes="4" speed="13.89" type="town" shape="797296.71,3298085.37 797189.92,3298098.58 797189.92,3298098.58 797077.76,3298112.17">
        <lane index="0" width="3.66" />
        <lane index="1" width="3.66" />
        <lane index="2" width="3.66" />
        <lane index="3" width="3.66" type="shoulder" disallow="all" />
    </edge>
    <edge id="312.0" from="junction_86" to="node_312_end" numLanes="4" speed="13.89" type="town" shape="798234.10,3298090.51 798185.10,3298089.03">
        <lane index="0" width="3.66" />
        <lane index="1" width="3.66" />
        <lane index="2" width="3.66" />
        <lane index="3" width="3.66" type="shoulder" disallow="all" />
    </edge>
    <edge id="313.0" from="node_312_end" to="node_311_start" numLanes="5" speed="13.89" type="town" shape="798185.10,3298089.03 797625.15,3298072.25 797625.15,3298072.25 797560.57,3298070.55 797560.57,3298070.55 797501.05,3298070.40 797501.05,3298070.40 797465.36,3298071.26 797465.36,3298071.26 797436.28,3298072.49 797436.28,3298072.49 797376.78,3298076.75 797376.78,3298076.75 797330.23,3298081.32 797330.23,3298081.32 797309.39,3298083.69 797309.39,3298083.69 797296.71,3298085.37">
        <lane index="0" width="3.66" type="shoulder" disallow="all" />
        <lane index="1" width="3.66" />
        <lane index="2" width="3.66" />
        <lane index="3" width="3.66" />
        <lane index="4" width="3.66" type="shoulder" disallow="all" />
    </edge>
    <edge id="314.0" from="junction_81" to="node_314_end" numLanes="4" speed="13.89" type="town" shape="800088.64,3298146.63 800039.97,3298145.11">
        <lane index="0" width="3.66" />
        <lane index="1" width="3.66" />
        <lane index="2" width="3.66" />
        <lane index="3" width="3.66" type="shoulder" disallow="all" />
    </edge>
    <edge id="315.0" from="node_314_end" to="junction_86" numLanes="5" speed="13.89" type="town" shape="800039.97,3298145.11 798284.93,3298092.09">
        <lane index="0" width="3.66" type="shoulder" disallow="all" />
        <lane index="1" width="3.66" />
        <lane index="2" width="3.66" />
        <lane index="3" width="3.66" />
        <lane index="4" width="3.66" type="shoulder" disallow="all" />
    </edge>
    <edge id="316.0" from="node_316_start" to="j_merge_start_21" numLanes="4" speed="13.89" type="town" shape="801137.55,3298178.59 800998.85,3298174.33">
        <lane index="0" width="3.66" />
        <lane index="1" width="3.66" />
        <lane index="2" width="3.66" />
        <lane index="3" width="3.66" type="shoulder" disallow="all" />
    </edge>
    <edge id="317.0" from="junction_82" to="node_317_end" numLanes="4" speed="13.89" type="town" shape="802147.87,3298208.91 802030.03,3298205.24">
        <lane index="0" width="3.66" />
        <lane index="1" width="3.66" />
        <lane index="2" width="3.66" />
        <lane index="3" width="3.66" type="shoulder" disallow="all" />
    </edge>
    <edge id="318.0" from="node_317_end" to="node_316_start" numLanes="5" speed="13.89" type="town" shape="802030.03,3298205.24 801839.47,3298199.91 801839.47,3298199.91 801137.55,3298178.59">
        <lane index="0" width="3.66" type="shoulder" disallow="all" />
        <lane index="1" width="3.66" />
        <lane index="2" width="3.66" />
        <lane index="3" width="3.66" />
        <lane index="4" width="3.66" type="shoulder" disallow="all" />
    </edge>
    <edge id="797.0" from="j_merge_end_55" to="node_797_end" numLanes="5" speed="13.89" type="town" shape="796851.96,3298139.86 796575.99,3298173.63 796575.99,3298173.63 796289.52,3298208.98 796289.52,3298208.98 796249.51,3298213.61 796249.51,3298213.61 796177.34,3298222.24 796177.34,3298222.24 796156.78,3298224.06 796156.78,3298224.06 796148.54,3298224.25 796148.54,3298224.25 796141.48,3298225.26 796141.48,3298225.26 796129.65,3298226.10 796129.65,3298226.10 796112.50,3298227.22 796112.50,3298227.22 796102.55,3298228.19 796102.55,3298228.19 796092.33,3298228.07 796092.33,3298228.07 796075.21,3298228.41 796075.21,3298228.41 796047.27,3298228.60 796047.27,3298228.60 796021.40,3298228.25 796021.40,3298228.25 795945.22,3298225.61 795945.22,3298225.61 795869.05,3298222.32 795869.05,3298222.32 795856.96,3298221.90">
        <lane index="0" width="3.66" type="shoulder" disallow="all" />
        <lane index="1" width="3.66" />
        <lane index="2" width="3.66" />
        <lane index="3" width="3.66" />
        <lane index="4" width="3.66" type="shoulder" disallow="all" />
    </edge>
    <edge id="798.0" from="node_797_end" to="node_798_end" numLanes="5" speed="13.89" type="town" shape="795856.96,3298221.90 795668.32,3298215.20">
        <lane index="0" width="3.66" type="shoulder" disallow="all" />
        <lane index="1" width="3.66" />
        <lane index="2" width="3.66" />
        <lane index="3" width="3.66" />
        <lane index="4" width="3.66" type="shoulder" disallow="all" />
    </edge>
    <edge id="287.0" from="node_287_start" to="j_merge_start_22" numLanes="1" speed="13.89" type="town" shape="804252.29,3298299.77 804239.13,3298300.15 804239.13,3298300.15 804206.07,3298299.91 804206.07,3298299.91 804174.02,3298299.20 804174.02,3298299.20 804141.89,3298298.28 804141.89,3298298.28 804113.27,3298296.65 804113.27,3298296.65 804084.92,3298294.58 804084.92,3298294.58 804052.53,3298291.51 804052.53,3298291.51 803929.69,3298278.11 803929.69,3298278.11 803912.22,3298276.51">
        <lane index="0" width="3.66" />
    </edge>
    <edge id="271.0" from="node_271_start" to="j_merge_start_22" numLanes="3" speed="13.89" type="town" shape="804090.55,3298266.94 803989.85,3298267.42 803989.85,3298267.42 803912.54,3298265.56">
        <lane index="0" width="3.66" />
        <lane index="1" width="3.66" />
        <lane index="2" width="3.66" />
    </edge>
    <edge id="merge_zone_55" from="j_merge_start_55" to="j_merge_end_55" numLanes="5" speed="13.89" name="Merge zone 55" type="highway_merge" shape="797077.76,3298112.17 796851.96,3298139.86">
        <lane index="0" width="3.66" />
        <lane index="1" width="3.66" />
        <lane index="2" width="3.66" />
        <lane index="3" width="3.66" />
        <lane index="4" width="3.66" type="shoulder" disallow="all" />
    </edge>
    <edge id="merge_zone_21" from="j_merge_start_21" to="j_merge_end_21" numLanes="5" speed="13.89" name="Merge zone 21" type="highway_merge" shape="800998.85,3298174.33 800816.41,3298168.87">
        <lane index="0" width="3.66" />
        <lane index="1" width="3.66" />
        <lane index="2" width="3.66" />
        <lane index="3" width="3.66" />
        <lane index="4" width="3.66" type="shoulder" disallow="all" />
    </edge>
    <edge id="merge_zone_22" from="j_merge_start_22" to="j_merge_end_22" numLanes="4" speed="13.89" name="Merge zone 22" type="highway_merge" shape="803912.68,3298262.33 803591.35,3298252.43">
        <lane index="0" width="3.66" />
        <lane index="1" width="3.66" />
        <lane index="2" width="3.66" />
        <lane index="3" width="3.66" />
    </edge>
</edges>