<?xml version='1.0' encoding='utf-8'?>
<connections>
    <connection from="316.0" to="merge_zone_21" fromLane="3" toLane="4" />
    <connection from="316.0" to="merge_zone_21" fromLane="1" toLane="2" />
    <connection from="316.0" to="merge_zone_21" fromLane="0" toLane="1" />
    <connection from="316.0" to="merge_zone_21" fromLane="2" toLane="3" />
    <connection from="merge_zone_21" to="266.0" fromLane="4" toLane="4" />
    <connection from="merge_zone_21" to="266.0" fromLane="2" toLane="2" />
    <connection from="merge_zone_21" to="266.0" fromLane="1" toLane="1" />
    <connection from="merge_zone_21" to="266.0" fromLane="3" toLane="3" />
    <connection from="283.0" to="merge_zone_21" fromLane="0" toLane="0" />
    <connection from="merge_zone_21" to="266.0" fromLane="0" toLane="4" dir="r" state="m" />
    <connection from="287.0" to="merge_zone_22" fromLane="0" toLane="0" />
    <connection from="merge_zone_22" to="269.0" fromLane="0" toLane="4" dir="r" state="m" />
    <connection from="271.0" to="merge_zone_22" fromLane="2" toLane="2" />
    <connection from="271.0" to="merge_zone_22" fromLane="1" toLane="1" />
    <connection from="merge_zone_22" to="269.0" fromLane="2" toLane="3" />
    <connection from="merge_zone_22" to="269.0" fromLane="1" toLane="2" />
    <connection from="merge_zone_22" to="269.0" fromLane="3" toLane="4" />
    <connection from="278.0" to="merge_zone_55" fromLane="0" toLane="0" />
    <connection from="merge_zone_55" to="797.0" fromLane="0" toLane="4" dir="r" state="m" />
    <connection from="311.0" to="merge_zone_55" fromLane="3" toLane="4" />
    <connection from="311.0" to="merge_zone_55" fromLane="0" toLane="1" />
    <connection from="311.0" to="merge_zone_55" fromLane="1" toLane="2" />
    <connection from="311.0" to="merge_zone_55" fromLane="2" toLane="3" />
    <connection from="merge_zone_55" to="797.0" fromLane="4" toLane="4" />
    <connection from="merge_zone_55" to="797.0" fromLane="1" toLane="1" />
    <connection from="merge_zone_55" to="797.0" fromLane="2" toLane="2" />
    <connection from="merge_zone_55" to="797.0" fromLane="3" toLane="3" />
    <connection from="266.0" to="314.0" fromLane="3" toLane="2" />
    <connection from="266.0" to="314.0" fromLane="1" toLane="0" />
    <connection from="266.0" to="314.0" fromLane="4" toLane="3" />
    <connection from="266.0" to="314.0" fromLane="2" toLane="1" />
    <connection from="266.0" to="282.0" fromLane="1" toLane="0" />
    <connection from="269.0" to="286.0" fromLane="1" toLane="0" />
    <connection from="269.0" to="317.0" fromLane="2" toLane="1" />
    <connection from="269.0" to="317.0" fromLane="3" toLane="2" />
    <connection from="269.0" to="317.0" fromLane="4" toLane="3" />
    <connection from="269.0" to="317.0" fromLane="1" toLane="0" />
    <connection from="315.0" to="312.0" fromLane="3" toLane="2" />
    <connection from="315.0" to="312.0" fromLane="1" toLane="0" />
    <connection from="315.0" to="312.0" fromLane="2" toLane="1" />
    <connection from="315.0" to="312.0" fromLane="4" toLane="3" />
    <connection from="315.0" to="280.0" fromLane="1" toLane="0" />
</connections>