<?xml version='1.0' encoding='utf-8'?>
<nodes>
    <location netOffset="-563427.30,-3258001.36" convBoundary="0.00,0.00,240824.99,40519.32" origBoundary="563427.30,3258001.36,804252.29,3298520.68" projParameter="+proj=utm +zone=14 +datum=WGS84 +units=m +no_defs" />
    <node id="node_0_start" x="218709.93187101162" y="39338.91760886414" type="priority" />
    <node id="node_0_end" x="218331.73591393116" y="39392.52703702822" type="priority" />
    <node id="node_100_start" x="199778.97112588515" y="36353.04494942352" type="priority" />
    <node id="node_101_start" x="204277.90059818642" y="37073.98877747124" type="priority" />
    <node id="node_101_end" x="204237.15450443584" y="37067.4333575475" type="priority" />
    <node id="node_103_end" x="199549.41382510948" y="36316.24118405115" type="priority" />
    <node id="node_104_start" x="202132.03048276145" y="36730.11917212466" type="priority" />
    <node id="node_104_end" x="202123.8456184771" y="36728.799317512196" type="priority" />
    <node id="node_105_start" x="204195.44150693878" y="37089.47750122519" type="priority" />
    <node id="node_106_start" x="201757.89901938126" y="36670.157203457784" type="priority" />
    <node id="node_106_end" x="201613.99239506014" y="36647.10901672719" type="priority" />
    <node id="node_107_start" x="203916.67403568514" y="37033.508919070475" type="priority" />
    <node id="node_108_end" x="203490.95919193584" y="36947.8601153614" type="priority" />
    <node id="node_111_end" x="199481.7569822946" y="36305.41554455133" type="priority" />
    <node id="node_112_start" x="202659.56856693514" y="36814.667854617815" type="priority" />
    <node id="node_113_start" x="203919.21505131014" y="37016.52002746938" type="priority" />
    <node id="node_114_end" x="202558.1842081761" y="36819.480170968454" type="priority" />
    <node id="node_116_start" x="199776.40638695634" y="36375.974129748996" type="priority" />
    <node id="node_118_start" x="199816.74909372884" y="36384.51396979019" type="priority" />
    <node id="node_119_start" x="197563.14747055795" y="35854.97588437423" type="priority" />
    <node id="node_119_end" x="197524.89374626614" y="35844.98964478169" type="priority" />
    <node id="node_12_end" x="220496.17305912368" y="39147.64432556555" type="priority" />
    <node id="node_120_start" x="198125.54593838193" y="35991.59874960221" type="priority" />
    <node id="node_120_end" x="198117.9383847164" y="35989.63994172076" type="priority" />
    <node id="node_121_end" x="197844.21515392396" y="35919.36073683668" type="priority" />
    <node id="node_122_start" x="199357.73458256037" y="36284.91638977593" type="priority" />
    <node id="node_123_end" x="197146.88807139883" y="35746.08673710376" type="priority" />
    <node id="node_124_end" x="197809.4487470272" y="35910.371414396446" type="priority" />
    <node id="node_125_start" x="191890.95442630327" y="34401.85923301242" type="priority" />
    <node id="node_125_end" x="191654.30589156703" y="34340.35327694006" type="priority" />
    <node id="node_126_start" x="195057.30988092383" y="35210.25418945588" type="priority" />
    <node id="node_126_end" x="194799.42222287995" y="35143.86717142444" type="priority" />
    <node id="node_128_start" x="193832.48259703047" y="34895.810686938465" type="priority" />
    <node id="node_128_end" x="193774.27154846443" y="34880.82664860878" type="priority" />
    <node id="node_129_end" x="194310.07442631095" y="35018.31946594827" type="priority" />
    <node id="node_131_end" x="195048.1691939613" y="35229.16218618071" type="priority" />
    <node id="node_132_end" x="190636.86538453354" y="34082.2572159688" type="priority" />
    <node id="node_133_start" x="194428.5811974418" y="35070.88497650856" type="priority" />
    <node id="node_134_start" x="184363.85591710382" y="32473.70135771297" type="priority" />
    <node id="node_134_end" x="182609.38774314965" y="32195.007137263194" type="priority" />
    <node id="node_135_start" x="184630.216020816" y="32542.256693029776" type="priority" />
    <node id="node_135_end" x="184579.87063237093" y="32529.397338659037" type="priority" />
    <node id="node_136_end" x="184456.3513952851" y="32497.64193368191" type="priority" />
    <node id="node_137_start" x="186364.66045730643" y="32986.52594019752" type="priority" />
    <node id="node_137_end" x="186310.1190991142" y="32972.541021663696" type="priority" />
    <node id="node_138_end" x="186259.7857568164" y="32959.64126376528" type="priority" />
    <node id="node_140_start" x="178316.48336742376" y="31309.05770445196" type="priority" />
    <node id="node_140_end" x="178266.3151922077" y="31293.565552327316" type="priority" />
    <node id="node_142_start" x="181972.13355773804" y="32087.717559015844" type="priority" />
    <node id="node_142_end" x="180780.78365596954" y="31863.17865392007" type="priority" />
    <node id="node_143_start" x="182246.05310704524" y="32141.094669103157" type="priority" />
    <node id="node_145_start" x="178314.17834066774" y="31321.246121683624" type="priority" />
    <node id="node_146_start" x="178369.90768152685" y="31334.65405007219" type="priority" />
    <node id="node_149_start" x="175113.53341068595" y="29478.455208135303" type="priority" />
    <node id="node_149_end" x="175072.80684818537" y="29447.524544071406" type="priority" />
    <node id="node_15_start" x="216311.96919003944" y="39507.1922462536" type="priority" />
    <node id="node_15_end" x="215647.34835209185" y="39459.888344120234" type="priority" />
    <node id="node_150_start" x="174800.67794193537" y="29324.06360657001" type="priority" />
    <node id="node_150_end" x="174390.46309818455" y="29184.59778625844" type="priority" />
    <node id="node_152_start" x="174289.82247318572" y="29175.53723938251" type="priority" />
    <node id="node_152_end" x="174157.61918698135" y="29179.229548074305" type="priority" />
    <node id="node_153_start" x="177342.47703368554" y="30724.88300648704" type="priority" />
    <node id="node_153_end" x="175147.23262943374" y="29507.455208133906" type="priority" />
    <node id="node_154_start" x="174945.33809818584" y="29379.520637821406" type="priority" />
    <node id="node_154_end" x="174893.74457082874" y="29359.666073016822" type="priority" />
    <node id="node_158_end" x="177520.4709106863" y="30860.32337219687" type="priority" />
    <node id="node_16_start" x="221892.76632084162" y="38987.92946655722" type="priority" />
    <node id="node_16_end" x="221798.45366462367" y="38998.69095842587" type="priority" />
    <node id="node_160_end" x="172067.63981823483" y="29324.828982697334" type="priority" />
    <node id="node_162_start" x="177454.74434818618" y="30810.311165164225" type="priority" />
    <node id="node_163_start" x="175143.82517197495" y="29510.563999772537" type="priority" />
    <node id="node_163_end" x="175107.73147735884" y="29484.767422278877" type="priority" />
    <node id="node_168_start" x="174491.90947921702" y="29231.902351569384" type="priority" />
    <node id="node_169_start" x="177645.72896732646" y="30999.71216614358" type="priority" />
    <node id="node_17_start" x="219232.25937822112" y="39296.59378488548" type="priority" />
    <node id="node_172_start" x="169418.75438846857" y="29259.598915409762" type="priority" />
    <node id="node_174_end" x="168187.19561475818" y="29215.022903229576" type="priority" />
    <node id="node_176_end" x="168125.28407960339" y="29213.279788488988" type="priority" />
    <node id="node_177_end" x="169418.7638794363" y="29249.56653625937" type="priority" />
    <node id="node_179_end" x="171689.86510624015" y="29336.872566591017" type="priority" />
    <node id="node_18_end" x="217872.26598911337" y="39471.962993410416" type="priority" />
    <node id="node_180_end" x="169694.40389408357" y="29322.69007046288" type="priority" />
    <node id="node_182_end" x="167543.5607544356" y="29196.88098938437" type="priority" />
    <node id="node_184_start" x="171117.88887943537" y="29297.92591125937" type="priority" />
    <node id="node_185_start" x="171117.78063361347" y="29308.11161069246" type="priority" />
    <node id="node_186_start" x="167576.81884171243" y="29209.614252415486" type="priority" />
    <node id="node_186_end" x="167543.58480228786" y="29206.987587106414" type="priority" />
    <node id="node_188_start" x="167651.243127423" y="29220.30631104391" type="priority" />
    <node id="node_190_start" x="171259.02883316868" y="29367.101082575507" type="priority" />
    <node id="node_192_start" x="169901.75823535374" y="29263.228515374474" type="priority" />
    <node id="node_193_end" x="169959.80137021467" y="29264.80422676215" type="priority" />
    <node id="node_194_start" x="169542.42086173873" y="29318.559851956554" type="priority" />
    <node id="node_197_end" x="168036.7173096108" y="29224.696723770816" type="priority" />
    <node id="node_200_start" x="163818.8395019942" y="28910.509498905856" type="priority" />
    <node id="node_202_start" x="163819.80779425974" y="28900.431892704684" type="priority" />
    <node id="node_203_end" x="164552.1708008526" y="28977.348488164134" type="priority" />
    <node id="node_204_end" x="164552.88085319288" y="28967.276619267184" type="priority" />
    <node id="node_206_start" x="163965.38155521627" y="28974.640876840334" type="priority" />
    <node id="node_207_end" x="164359.27404052252" y="28987.18821418984" type="priority" />
    <node id="node_208_start" x="152040.72890485253" y="28737.52734884899" type="priority" />
    <node id="node_208_end" x="151422.57674715435" y="28675.123480828945" type="priority" />
    <node id="node_213_end" x="145684.3924791842" y="28419.483152371366" type="priority" />
    <node id="node_214_start" x="151421.67012943537" y="28685.13196594594" type="priority" />
    <node id="node_214_end" x="151387.0220883477" y="28679.75002029864" type="priority" />
    <node id="node_217_start" x="151644.1311719967" y="28749.283555345144" type="priority" />
    <node id="node_219_start" x="152039.7870573136" y="28747.638460223097" type="priority" />
    <node id="node_219_end" x="151805.96096290858" y="28773.067634892184" type="priority" />
    <node id="node_221_start" x="145095.31644779048" y="28672.995474677067" type="priority" />
    <node id="node_221_end" x="145048.8420044355" y="28693.102669072337" type="priority" />
    <node id="node_222_end" x="144433.57152106252" y="28957.707990517374" type="priority" />
    <node id="node_225_end" x="144962.43988143152" y="28746.4647222762" type="priority" />
    <node id="node_228_end" x="143153.39382702205" y="29059.101741387043" type="priority" />
    <node id="node_230_start" x="144437.70672761183" y="28967.367942642886" type="priority" />
    <node id="node_231_start" x="144646.4408966602" y="28915.837079372257" type="priority" />
    <node id="node_232_end" x="209792.22380808077" y="37537.40301236091" type="priority" />
    <node id="node_236_start" x="194126.82043683296" y="34971.232198064215" type="priority" />
    <node id="node_238_start" x="194308.0401291144" y="35025.141552918125" type="priority" />
    <node id="node_238_end" x="194126.06292017398" y="34974.9101658226" type="priority" />
    <node id="node_239_start" x="177450.50308769254" y="30816.31880169874" type="priority" />
    <node id="node_239_end" x="177340.11217267718" y="30727.63006686559" type="priority" />
    <node id="node_24_end" x="219605.3972631927" y="39253.89573646989" type="priority" />
    <node id="node_240_start" x="199461.0119690227" y="36317.130163316615" type="priority" />
    <node id="node_240_end" x="199356.024106081" y="36296.03984016692" type="priority" />
    <node id="node_241_end" x="213469.87209193478" y="38944.1969268769" type="priority" />
    <node id="node_244_start" x="197808.00544445938" y="35917.61735275993" type="priority" />
    <node id="node_245_start" x="197809.06293952488" y="35914.12594072893" type="priority" />
    <node id="node_25_start" x="216869.29518470028" y="39567.752727479674" type="priority" />
    <node id="node_250_start" x="168187.26428260747" y="29218.63032631809" type="priority" />
    <node id="node_250_end" x="168125.3671913566" y="29220.270325258374" type="priority" />
    <node id="node_253_start" x="169959.81784018374" y="29268.509377838578" type="priority" />
    <node id="node_253_end" x="169901.62433224777" y="29270.209528713487" type="priority" />
    <node id="node_257_start" x="222988.55053518584" y="39055.10005775653" type="priority" />
    <node id="node_258_start" x="224324.7060115066" y="39458.31211211998" type="priority" />
    <node id="node_260_start" x="231196.6058808742" y="40177.325669886544" type="priority" />
    <node id="node_260_end" x="230178.71336243243" y="40141.55221566092" type="priority" />
    <node id="node_27_start" x="211346.70595703565" y="37887.52751208423" type="priority" />
    <node id="node_27_end" x="210658.05332851526" y="37628.19631720334" type="priority" />
    <node id="node_271_start" x="240663.24083811324" y="40265.57704175636" type="priority" />
    <node id="node_274_end" x="221635.2598440377" y="39044.784899949096" type="priority" />
    <node id="node_276_end" x="231078.03455083608" y="40200.754774701316" type="priority" />
    <node id="node_278_start" x="234142.15486903687" y="40201.34368948825" type="priority" />
    <node id="node_280_end" x="234721.19078015524" y="40113.83042527968" type="priority" />
    <node id="node_282_end" x="236540.9735134804" y="40175.47267090203" type="priority" />
    <node id="node_283_start" x="237932.2524561528" y="40303.99060912989" type="priority" />
    <node id="node_286_end" x="238487.9357887574" y="40230.86482570926" type="priority" />
    <node id="node_287_start" x="240824.98998593772" y="40298.41399995936" type="priority" />
    <node id="node_290_start" x="229646.13900396973" y="40175.904277577996" type="priority" />
    <node id="node_291_start" x="230135.42094910028" y="40139.94414019259" type="priority" />
    <node id="node_293_start" x="228332.80886906944" y="40518.85883639986" type="priority" />
    <node id="node_295_end" x="227635.24998067063" y="40435.27867954038" type="priority" />
    <node id="node_296_end" x="226757.35550565342" y="40208.33635658026" type="priority" />
    <node id="node_297_start" x="230430.63899283647" y="40180.65734108351" type="priority" />
    <node id="node_299_end" x="227433.31247629575" y="40431.02067110082" type="priority" />
    <node id="node_30_start" x="212228.5703138376" y="38219.358970497735" type="priority" />
    <node id="node_30_end" x="211915.4865870973" y="38101.659464698285" type="priority" />
    <node id="node_302_end" x="226620.77121310332" y="40167.080216745846" type="priority" />
    <node id="node_303_start" x="222102.66328786593" y="38964.05076120142" type="priority" />
    <node id="node_308_end" x="229378.12651924137" y="40156.728253044654" type="priority" />
    <node id="node_310_start" x="231782.3597066122" y="40197.609001812525" type="priority" />
    <node id="node_311_start" x="233869.4033495239" y="40084.01190900849" type="priority" />
    <node id="node_312_end" x="234757.80007775547" y="40087.67603860283" type="priority" />
    <node id="node_314_end" x="236612.66866916278" y="40143.752526591066" type="priority" />
    <node id="node_316_start" x="237710.2409521148" y="40177.22699367348" type="priority" />
    <node id="node_317_end" x="238602.72472680686" y="40203.88416780997" type="priority" />
    <node id="node_319_start" x="220960.44294157624" y="39119.716582235415" type="priority" />
    <node id="node_32_start" x="211828.73813927884" y="38068.865178999025" type="priority" />
    <node id="node_321_start" x="139003.12481600977" y="28577.303934818134" type="priority" />
    <node id="node_321_end" x="138922.02945838287" y="28558.322924746666" type="priority" />
    <node id="node_324_end" x="139004.33749090252" y="28570.781477657612" type="priority" />
    <node id="node_325_start" x="138922.72533736052" y="28554.698472997174" type="priority" />
    <node id="node_329_start" x="139256.36393031548" y="28643.679858347867" type="priority" />
    <node id="node_33_end" x="212291.7976903473" y="38243.32119607134" type="priority" />
    <node id="node_330_end" x="139660.80747018429" y="28748.183434383012" type="priority" />
    <node id="node_331_start" x="140013.9598145797" y="28769.298441776074" type="priority" />
    <node id="node_332_start" x="130232.70980508556" y="28285.424340926576" type="priority" />
    <node id="node_332_end" x="129520.19732941699" y="28286.010123004206" type="priority" />
    <node id="node_333_start" x="130232.78317537264" y="28295.390929086134" type="priority" />
    <node id="node_333_end" x="130019.89695236087" y="28324.26952989213" type="priority" />
    <node id="node_338_start" x="129520.08931856323" y="28296.033949323" type="priority" />
    <node id="node_339_start" x="129691.89161937602" y="28314.608062175103" type="priority" />
    <node id="node_34_start" x="214105.62579859863" y="39276.15977845434" type="priority" />
    <node id="node_340_end" x="120600.9248149693" y="28722.93977232231" type="priority" />
    <node id="node_341_start" x="120600.19236263703" y="28733.093077568337" type="priority" />
    <node id="node_341_end" x="120319.53901085409" y="28745.276092242915" type="priority" />
    <node id="node_342_start" x="118948.50103048387" y="28655.001147262752" type="priority" />
    <node id="node_343_end" x="119122.39900750958" y="28662.457823934965" type="priority" />
    <node id="node_345_start" x="119505.88204422686" y="28739.877303374" type="priority" />
    <node id="node_347_start" x="119121.99260980054" y="28669.293806983624" type="priority" />
    <node id="node_347_end" x="118948.30435707723" y="28658.59256411763" type="priority" />
    <node id="node_35_end" x="213315.65841068537" y="38793.64925415488" type="priority" />
    <node id="node_351_end" x="113427.9598240538" y="28052.633535301313" type="priority" />
    <node id="node_352_end" x="112557.0916639968" y="28047.945500505622" type="priority" />
    <node id="node_355_end" x="105918.80702252605" y="27718.56957165664" type="priority" />
    <node id="node_356_start" x="112783.78976169392" y="28086.223151691724" type="priority" />
    <node id="node_356_end" x="112556.8290409185" y="28058.021031268407" type="priority" />
    <node id="node_357_end" x="113427.781220612" y="28062.64517739881" type="priority" />
    <node id="node_358_end" x="113058.15247655124" y="28109.2436737651" type="priority" />
    <node id="node_361_start" x="105049.24854651908" y="27356.542406490073" type="priority" />
    <node id="node_361_end" x="104962.05646923278" y="27320.208451199345" type="priority" />
    <node id="node_364_end" x="105682.21102413489" y="27652.892653417774" type="priority" />
    <node id="node_365_start" x="105418.99136625021" y="27573.078340451233" type="priority" />
    <node id="node_366_end" x="105859.64229217276" y="27693.88183680456" type="priority" />
    <node id="node_370_start" x="105046.76580318878" y="27362.991286230274" type="priority" />
    <node id="node_370_end" x="104960.60235301673" y="27323.556753073353" type="priority" />
    <node id="node_373_end" x="101390.40535665606" y="25415.524982847273" type="priority" />
    <node id="node_374_start" x="101315.23962837993" y="25403.964179443195" type="priority" />
    <node id="node_375_end" x="100470.6160317891" y="25311.242253825534" type="priority" />
    <node id="node_376_start" x="100820.20684334729" y="25407.97782797925" type="priority" />
    <node id="node_378_end" x="101092.66100582527" y="25428.193038892932" type="priority" />
    <node id="node_382_start" x="100387.38426331093" y="25302.0984612233" type="priority" />
    <node id="node_386_start" x="100469.82098344096" y="25319.060940189753" type="priority" />
    <node id="node_386_end" x="100387.01020621147" y="25305.760805124417" type="priority" />
    <node id="node_387_end" x="90425.35927646235" y="24052.653388521634" type="priority" />
    <node id="node_388_start" x="90423.9598644675" y="24062.673506734893" type="priority" />
    <node id="node_388_end" x="90243.68175783916" y="24055.38374252245" type="priority" />
    <node id="node_39_end" x="213279.98902275926" y="38758.84932641871" type="priority" />
    <node id="node_392_end" x="89348.67727169534" y="23906.838973058388" type="priority" />
    <node id="node_393_start" x="89595.28164724587" y="23978.039252517745" type="priority" />
    <node id="node_394_start" x="89347.75347408745" y="23913.379347517155" type="priority" />
    <node id="node_394_end" x="89223.76401632291" y="23893.70257397415" type="priority" />
    <node id="node_395_start" x="89224.29257173277" y="23890.038609914947" type="priority" />
    <node id="node_398_end" x="81662.9456737939" y="22963.442183448467" type="priority" />
    <node id="node_4_end" x="220160.18331302982" y="39178.86861450598" type="priority" />
    <node id="node_400_start" x="80830.38762941957" y="23010.660323095508" type="priority" />
    <node id="node_401_start" x="80933.05272945901" y="23004.90067954175" type="priority" />
    <node id="node_404_end" x="81663.67803463398" y="22973.447798622772" type="priority" />
    <node id="node_405_end" x="81440.86815890798" y="23036.771223975345" type="priority" />
    <node id="node_407_start" x="81168.8115186406" y="23017.243452979717" type="priority" />
    <node id="node_41_end" x="215254.28441134538" y="39456.282692732755" type="priority" />
    <node id="node_410_start" x="73231.1969427152" y="23200.62042709114" type="priority" />
    <node id="node_410_end" x="72212.67224433343" y="22997.359567427076" type="priority" />
    <node id="node_412_start" x="72536.77935346984" y="23117.81211776845" type="priority" />
    <node id="node_412_end" x="72210.73021969257" y="23007.265974951908" type="priority" />
    <node id="node_416_start" x="73229.10481881653" y="23210.135873378254" type="priority" />
    <node id="node_416_end" x="72956.40984615777" y="23195.925887061283" type="priority" />
    <node id="node_418_start" x="66728.04436758196" y="22875.387007605284" type="priority" />
    <node id="node_418_end" x="66529.45293673885" y="22912.163130475208" type="priority" />
    <node id="node_419_start" x="66727.04547435092" y="22865.224489585496" type="priority" />
    <node id="node_42_start" x="214102.476096179" y="39296.68923293473" type="priority" />
    <node id="node_420_start" x="65491.8405684703" y="22953.469021987636" type="priority" />
    <node id="node_420_end" x="63220.40192041884" y="22352.362335751764" type="priority" />
    <node id="node_421_end" x="65578.02549351729" y="22947.1833302211" type="priority" />
    <node id="node_426_start" x="65578.28951627773" y="22953.69303347636" type="priority" />
    <node id="node_426_end" x="65492.22494192049" y="22957.10141794756" type="priority" />
    <node id="node_427_start" x="66011.28393062972" y="22961.755728196353" type="priority" />
    <node id="node_432_end" x="62186.3591030949" y="22019.188071611803" type="priority" />
    <node id="node_436_end" x="63168.88254724699" y="22335.766191404313" type="priority" />
    <node id="node_438_end" x="62968.69896987197" y="22296.292525245342" type="priority" />
    <node id="node_439_start" x="62183.07342031668" y="22028.958846163936" type="priority" />
    <node id="node_440_start" x="62407.41295895027" y="22151.90324301878" type="priority" />
    <node id="node_441_start" x="52694.656546509126" y="18874.550671266392" type="priority" />
    <node id="node_443_start" x="53396.58318605891" y="19117.94309891574" type="priority" />
    <node id="node_443_end" x="53295.912398693734" y="19082.996259086765" type="priority" />
    <node id="node_444_end" x="56251.16228756367" y="20118.28831387963" type="priority" />
    <node id="node_445_end" x="51443.448465077905" y="18721.749031921383" type="priority" />
    <node id="node_446_start" x="56254.25548824668" y="20108.521529091988" type="priority" />
    <node id="node_447_start" x="54568.62481848977" y="19524.358611786272" type="priority" />
    <node id="node_447_end" x="54506.60493118432" y="19502.903362930287" type="priority" />
    <node id="node_448_end" x="52394.899568950525" y="18811.040070812218" type="priority" />
    <node id="node_449_end" x="52781.66468337609" y="18904.74989436986" type="priority" />
    <node id="node_451_end" x="55132.951227992424" y="19720.106001807377" type="priority" />
    <node id="node_455_end" x="51337.46270260168" y="18719.689558937214" type="priority" />
    <node id="node_456_end" x="56041.67949923931" y="20086.500410987996" type="priority" />
    <node id="node_458_start" x="55046.51378754014" y="19690.12769871019" type="priority" />
    <node id="node_46_start" x="211823.27143557346" y="38082.779835867696" type="priority" />
    <node id="node_46_end" x="211674.24417854263" y="38032.96029567579" type="priority" />
    <node id="node_461_end" x="54211.80266830209" y="19456.2533406741" type="priority" />
    <node id="node_464_start" x="55476.80767354462" y="19878.95610017795" type="priority" />
    <node id="node_466_start" x="53749.9550734458" y="19292.87412936706" type="priority" />
    <node id="node_47_start" x="214386.71661021095" y="39382.70415017009" type="priority" />
    <node id="node_474_start" x="55130.24372876389" y="19726.675062750932" type="priority" />
    <node id="node_474_end" x="55045.407587677124" y="19693.61912448518" type="priority" />
    <node id="node_475_start" x="52780.60589155636" y="18908.24003691692" type="priority" />
    <node id="node_475_end" x="52692.73534652684" y="18881.022810889874" type="priority" />
    <node id="node_476_start" x="51443.94744387269" y="18728.87235922832" type="priority" />
    <node id="node_476_end" x="51337.423456998076" y="18723.36772061698" type="priority" />
    <node id="node_478_start" x="52021.68911861547" y="18803.87438506726" type="priority" />
    <node id="node_479_start" x="140071.51886478043" y="28784.260988636408" type="priority" />
    <node id="node_479_end" x="140012.66909974045" y="28776.22834358737" type="priority" />
    <node id="node_48_end" x="211613.49505025335" y="38010.194114619866" type="priority" />
    <node id="node_480_start" x="140072.27642343566" y="28780.723308218643" type="priority" />
    <node id="node_487_start" x="105917.3545797239" y="27721.978840606753" type="priority" />
    <node id="node_487_end" x="105857.00526590028" y="27700.418843362015" type="priority" />
    <node id="node_488_start" x="101389.75394629221" y="25419.192879549693" type="priority" />
    <node id="node_488_end" x="101314.17410438764" y="25411.40674225893" type="priority" />
    <node id="node_49_end" x="211338.6312237347" y="37909.33201377466" type="priority" />
    <node id="node_493_start" x="80933.36131789826" y="23011.989896540996" type="priority" />
    <node id="node_493_end" x="80830.5212965915" y="23014.282637671102" type="priority" />
    <node id="node_496_start" x="63219.25637568068" y="22355.920996154193" type="priority" />
    <node id="node_496_end" x="63166.68343188183" y="22342.57748457603" type="priority" />
    <node id="node_499_start" x="54567.439631194575" y="19527.807356787845" type="priority" />
    <node id="node_499_end" x="54504.39575995831" y="19509.578456033487" type="priority" />
    <node id="node_500_start" x="53394.59362437378" y="19124.689105792902" type="priority" />
    <node id="node_500_end" x="53294.60634332546" y="19086.39402162982" type="priority" />
    <node id="node_501_start" x="143082.5022223161" y="29056.209797144867" type="priority" />
    <node id="node_504_end" x="46159.709773153416" y="18174.606490089558" type="priority" />
    <node id="node_505_end" x="49020.35961422429" y="18674.965071632527" type="priority" />
    <node id="node_506_end" x="50136.637080283486" y="18696.559798193164" type="priority" />
    <node id="node_508_end" x="44728.7115332305" y="17783.262542854995" type="priority" />
    <node id="node_509_start" x="49020.32964596152" y="18682.037215184886" type="priority" />
    <node id="node_509_end" x="48869.46093258308" y="18675.73014719691" type="priority" />
    <node id="node_51_end" x="211218.59740758885" y="37877.41695773043" type="priority" />
    <node id="node_510_end" x="50136.33001211309" y="18706.72209067503" type="priority" />
    <node id="node_511_end" x="48869.65685543546" y="18672.061324013397" type="priority" />
    <node id="node_513_end" x="46157.007258267375" y="18184.301009131595" type="priority" />
    <node id="node_519_end" x="49882.07073292218" y="18737.049240066204" type="priority" />
    <node id="node_52_start" x="212507.73230926495" y="38367.082976265345" type="priority" />
    <node id="node_520_end" x="45994.045602836646" y="18174.91990793543" type="priority" />
    <node id="node_521_start" x="45041.318905487075" y="17924.89851221675" type="priority" />
    <node id="node_522_start" x="49517.986750454875" y="18727.5915975105" type="priority" />
    <node id="node_523_start" x="43621.036166412756" y="17480.33912153775" type="priority" />
    <node id="node_523_end" x="41921.510149894515" y="17014.76537452219" type="priority" />
    <node id="node_524_start" x="44494.47660021996" y="17719.322948260233" type="priority" />
    <node id="node_524_end" x="44386.959190868074" y="17689.986236036755" type="priority" />
    <node id="node_525_end" x="44555.55252665875" y="17735.969336243812" type="priority" />
    <node id="node_528_start" x="38789.055028835544" y="16870.22976692766" type="priority" />
    <node id="node_529_start" x="40511.59630855941" y="16895.479902936146" type="priority" />
    <node id="node_529_end" x="40452.22533706424" y="16891.13032115763" type="priority" />
    <node id="node_53_start" x="207878.97383721638" y="37850.460398341995" type="priority" />
    <node id="node_53_end" x="207851.05789602792" y="37843.9813621426" type="priority" />