<?xml version='1.0' encoding='utf-8'?>
<edges>
    <location netOffset="-563427.30,-3258001.36" convBoundary="0.00,0.00,240824.99,40519.32" origBoundary="563427.30,3258001.36,804252.29,3298520.68" projParameter="+proj=utm +zone=14 +datum=WGS84 +units=m +no_defs" />
    <edge id="0.0" from="node_0_start" to="node_0_end" numLanes="5" speed="13.89" type="town" shape="218709.93,39338.92 218701.06,39340.31 218701.06,39340.31 218676.04,39344.49 218676.04,39344.49 218648.45,39348.98 218648.45,39348.98 218627.58,39352.30 218627.58,39352.30 218608.73,39355.24 218608.73,39355.24 218590.66,39358.16 218590.66,39358.16 218566.09,39361.73 218566.09,39361.73 218549.15,39364.25 218549.15,39364.25 218529.36,39367.20 218529.36,39367.20 218511.45,39369.72 218511.45,39369.72 218487.67,39373.03 218487.67,39373.03 218470.55,39375.43 218470.55,39375.43 218451.95,39377.85 218451.95,39377.85 218434.76,39380.11 218434.76,39380.11 218416.85,39382.39 218416.85,39382.39 218398.29,39384.72 218398.29,39384.72 218372.77,39387.78 218372.77,39387.78 218346.85,39390.78 218346.85,39390.78 218331.74,39392.53">
        <lane index="0" width="3.66" />
        <lane index="1" width="3.66" />
        <lane index="2" width="3.66" />
        <lane index="3" width="3.66" />
        <lane index="4" width="3.66" type="shoulder" disallow="all" />
    </edge>
    <edge id="100.0" from="node_100_start" to="junction_6" numLanes="5" speed="13.89" type="town" shape="199778.97,36353.04 199774.96,36352.40 199774.96,36352.40 199761.03,36350.16 199761.03,36350.16 199746.91,36347.90 199746.91,36347.90 199733.29,36345.74 199733.29,36345.74 199719.71,36343.55 199719.71,36343.55 199709.27,36341.87 199709.27,36341.87 199694.03,36339.42 199694.03,36339.42 199683.44,36337.71 199683.44,36337.71 199675.45,36336.44 199675.45,36336.44 199664.50,36334.67 199664.50,36334.67 199653.56,36332.92 199653.56,36332.92 199642.23,36331.13 199642.23,36331.13 199633.83,36329.76 199633.83,36329.76 199624.44,36328.27">
        <lane index="0" width="3.66" type="shoulder" disallow="all" />
        <lane index="1" width="3.66" />
        <lane index="2" width="3.66" />
        <lane index="3" width="3.66" />
        <lane index="4" width="3.66" type="shoulder" disallow="all" />
    </edge>
    <edge id="101.0" from="node_101_start" to="node_101_end" numLanes="5" speed="13.89" type="town" shape="204277.90,37073.99 204276.83,37073.82 204276.83,37073.82 204270.45,37072.78 204270.45,37072.78 204264.34,37071.81 204264.34,37071.81 204260.78,37071.21 204260.78,37071.21 204254.86,37070.28 204254.86,37070.28 204248.85,37069.31 204248.85,37069.31 204242.30,37068.26 204242.30,37068.26 204237.15,37067.43">
        <lane index="0" width="3.66" type="shoulder" disallow="all" />
        <lane index="1" width="3.66" />
        <lane index="2" width="3.66" />
        <lane index="3" width="3.66" />
        <lane index="4" width="3.66" type="shoulder" disallow="all" />
    </edge>
    <edge id="103.0" from="junction_6" to="node_103_end" numLanes="6" speed="13.89" type="town" shape="199561.93,36318.25 199559.39,36317.84 199559.39,36317.84 199549.41,36316.24">
        <lane index="0" width="3.66" />
        <lane index="1" width="3.66" type="shoulder" disallow="all" />
        <lane index="2" width="3.66" />
        <lane index="3" width="3.66" />
        <lane index="4" width="3.66" />
        <lane index="5" width="3.66" type="shoulder" disallow="all" />
    </edge>
    <edge id="104.0" from="node_104_start" to="node_104_end" numLanes="5" speed="13.89" type="town" shape="202132.03,36730.12 202127.40,36729.38 202127.40,36729.38 202123.85,36728.80">
        <lane index="0" width="3.66" type="shoulder" disallow="all" />
        <lane index="1" width="3.66" />
        <lane index="2" width="3.66" />
        <lane index="3" width="3.66" />
        <lane index="4" width="3.66" type="shoulder" disallow="all" />
    </edge>
    <edge id="105.0" from="node_105_start" to="junction_8" numLanes="1" speed="13.89" type="town" shape="204195.44,37089.48 204177.03,37085.46 204177.03,37085.46 204144.27,37078.23 204144.27,37078.23 204121.50,37073.13 204121.50,37073.13 204108.25,37070.16 204108.25,37070.16 204088.13,37065.80 204088.13,37065.80 204067.25,37061.44 204067.25,37061.44 204066.42,37061.27">
        <lane index="0" width="3.66" />
    </edge>
    <edge id="106.0" from="node_106_start" to="node_106_end" numLanes="5" speed="13.89" type="town" shape="201757.90,36670.16 201747.82,36668.53 201747.82,36668.53 201732.93,36666.15 201732.93,36666.15 201720.76,36664.15 201720.76,36664.15 201709.26,36662.34 201709.26,36662.34 201695.41,36660.17 201695.41,36660.17 201683.33,36658.23 201683.33,36658.23 201671.38,36656.35 201671.38,36656.35 201658.10,36654.25 201658.10,36654.25 201643.55,36651.88 201643.55,36651.88 201629.58,36649.66 201629.58,36649.66 201617.14,36647.63 201617.14,36647.63 201613.99,36647.11">
        <lane index="0" width="3.66" type="shoulder" disallow="all" />
        <lane index="1" width="3.66" />
        <lane index="2" width="3.66" />
        <lane index="3" width="3.66" />
        <lane index="4" width="3.66" type="shoulder" disallow="all" />
    </edge>
    <edge id="107.0" from="node_113_start" to="junction_7" numLanes="1" speed="13.89" type="town" shape="203916.67,37033.51 203908.70,37032.08 203908.70,37032.08 203889.36,37028.57 203889.36,37028.57 203867.91,37024.68 203867.91,37024.68 203846.26,37020.73 203846.26,37020.73 203828.19,37017.44 203828.19,37017.44 203812.55,37014.77 203812.55,37014.77 203803.42,37013.21">
        <lane index="0" width="3.66" />
    </edge>
    <edge id="108.0" from="junction_7" to="node_108_end" numLanes="5" speed="13.89" type="town" shape="203594.85,36964.53 203592.71,36964.19 203592.71,36964.19 203588.53,36963.52 203588.53,36963.52 203584.15,36962.82 203584.15,36962.82 203579.73,36962.10 203579.73,36962.10 203575.12,36961.38 203575.12,36961.38 203570.92,36960.71 203570.92,36960.71 203566.37,36959.97 203566.37,36959.97 203561.44,36959.20 203561.44,36959.20 203556.37,36958.37 203556.37,36958.37 203551.43,36957.57 203551.43,36957.57 203545.40,36956.61 203545.40,36956.61 203536.08,36955.11 203536.08,36955.11 203525.74,36953.46 203525.74,36953.46 203518.56,36952.31 203518.56,36952.31 203511.10,36951.10 203511.10,36951.10 203504.71,36950.06 203504.71,36950.06 203498.36,36949.05 203498.36,36949.05 203491.15,36947.89 203491.15,36947.89 203490.96,36947.86">
        <lane index="0" width="3.66" type="shoulder" disallow="all" />
        <lane index="1" width="3.66" />
        <lane index="2" width="3.66" />
        <lane index="3" width="3.66" />
        <lane index="4" width="3.66" type="shoulder" disallow="all" />
    </edge>
    <edge id="109.0" from="junction_8" to="junction_69" numLanes="6" speed="13.89" type="town" shape="203995.06,37028.64 203988.44,37027.60 203988.44,37027.60 203982.11,37026.59 203982.11,37026.59 203974.53,37025.37 203974.53,37025.37 203967.40,37024.24 203967.40,37024.24 203959.31,37022.96 203959.31,37022.96 203951.77,37021.73 203951.77,37021.73 203944.46,37020.56 203944.46,37020.56 203937.94,37019.50 203937.94,37019.50 203931.52,37018.47 203931.52,37018.47 203925.57,37017.51 203925.57,37017.51 203920.13,37016.67 203920.13,37016.67 203919.22,37016.52">
        <lane index="0" width="3.66" />
        <lane index="1" width="3.66" type="shoulder" disallow="all" />
        <lane index="2" width="3.66" />
        <lane index="3" width="3.66" />
        <lane index="4" width="3.66" />
        <lane index="5" width="3.66" type="shoulder" disallow="all" />
    </edge>
    <edge id="111.0" from="node_103_end" to="node_111_end" numLanes="4" speed="13.89" type="town" shape="199549.41,36316.24 199548.23,36316.05 199548.23,36316.05 199538.11,36314.43 199538.11,36314.43 199526.17,36312.53 199526.17,36312.53 199514.93,36310.73 199514.93,36310.73 199503.44,36308.90 199503.44,36308.90 199492.71,36307.17 199492.71,36307.17 199481.76,36305.42">
        <lane index="0" width="3.66" />
        <lane index="1" width="3.66" />
        <lane index="2" width="3.66" />
        <lane index="3" width="3.66" type="shoulder" disallow="all" />
    </edge>
    <edge id="112.0" from="node_112_start" to="junction_70" numLanes="5" speed="13.89" type="town" shape="202659.57,36814.67 202656.39,36814.16 202656.39,36814.16 202649.33,36813.03">
        <lane index="0" width="3.66" />
        <lane index="1" width="3.66" />
        <lane index="2" width="3.66" />
        <lane index="3" width="3.66" />
        <lane index="4" width="3.66" type="shoulder" disallow="all" />
    </edge>
    <edge id="113.0" from="node_113_start" to="junction_7" numLanes="4" speed="13.89" type="town" shape="203919.22,37016.52 203914.69,37015.79 203914.69,37015.79 203909.66,37014.98 203909.66,37014.98 203903.63,37014.00 203903.63,37014.00 203897.93,37013.11 203897.93,37013.11 203892.16,37012.16 203892.16,37012.16 203886.01,37011.17 203886.01,37011.17 203879.81,37010.17 203879.81,37010.17 203873.28,37009.14 203873.28,37009.14 203866.75,37008.11 203866.75,37008.11 203860.14,37007.04 203860.14,37007.04 203854.84,37006.21 203854.84,37006.21 203848.90,37005.24 203848.90,37005.24 203842.58,37004.24 203842.58,37004.24 203836.15,37003.21 203836.15,37003.21 203830.21,37002.25 203830.21,37002.25 203824.19,37001.28 203824.19,37001.28 203818.25,37000.33 203818.25,37000.33 203812.16,36999.38 203812.16,36999.38 203806.18,36998.40 203806.18,36998.40 203805.45,36998.28">
        <lane index="0" width="3.66" />
        <lane index="1" width="3.66" />
        <lane index="2" width="3.66" />
        <lane index="3" width="3.66" type="shoulder" disallow="all" />
    </edge>
    <edge id="114.0" from="junction_70" to="node_114_end" numLanes="1" speed="13.89" type="town" shape="202593.90,36822.92 202580.29,36821.65 202580.29,36821.65 202564.60,36820.09 202564.60,36820.09 202558.18,36819.48">
        <lane index="0" width="3.66" />
    </edge>
    <edge id="116.0" from="node_116_start" to="junction_6" numLanes="1" speed="13.89" type="town" shape="199776.41,36375.97 199767.61,36374.15 199767.61,36374.15 199747.72,36370.29 199747.72,36370.29 199724.00,36365.88 199724.00,36365.88 199709.00,36363.22 199709.00,36363.22 199690.38,36360.03 199690.38,36360.03 199668.42,36356.30 199668.42,36356.30 199646.88,36352.63 199646.88,36352.63 199631.73,36350.04 199631.73,36350.04 199621.88,36348.39">
        <lane index="0" width="3.66" />
    </edge>
    <edge id="118.0" from="node_118_start" to="node_116_start" numLanes="1" speed="13.89" type="town" shape="199816.75,36384.51 199798.33,36380.52 199798.33,36380.52 199776.41,36375.97">
        <lane index="0" width="3.66" />
    </edge>
    <edge id="119.0" from="node_119_start" to="node_119_end" numLanes="3" speed="13.89" type="town" shape="197563.15,35854.98 197544.98,35850.15 197544.98,35850.15 197524.89,35844.99">
        <lane index="0" width="3.66" type="shoulder" disallow="all" />
        <lane index="1" width="3.66" />
        <lane index="2" width="3.66" />
    </edge>
    <edge id="12.0" from="j_merge_end_2" to="node_12_end" numLanes="5" speed="13.89" type="town" shape="220583.83,39137.56 220575.76,39138.48 220575.76,39138.48 220563.20,39139.90 220563.20,39139.90 220547.06,39141.81 220547.06,39141.81 220533.09,39143.43 220533.09,39143.43 220521.43,39144.74 220521.43,39144.74 220508.36,39146.22 220508.36,39146.22 220496.17,39147.64">
        <lane index="0" width="3.66" />
        <lane index="1" width="3.66" />
        <lane index="2" width="3.66" />
        <lane index="3" width="3.66" />
        <lane index="4" width="3.66" type="shoulder" disallow="all" />
    </edge>
    <edge id="120.0" from="node_120_start" to="node_120_end" numLanes="5" speed="13.89" type="town" shape="198125.55,35991.60 198121.55,35990.57 198121.55,35990.57 198117.94,35989.64">
        <lane index="0" width="3.66" type="shoulder" disallow="all" />
        <lane index="1" width="3.66" />
        <lane index="2" width="3.66" />
        <lane index="3" width="3.66" />
        <lane index="4" width="3.66" type="shoulder" disallow="all" />
    </edge>
    <edge id="121.0" from="node_120_end" to="node_121_end" numLanes="5" speed="13.89" type="town" shape="198117.94,35989.64 198096.17,35984.06 198096.17,35984.06 198074.49,35978.39 198074.49,35978.39 198052.70,35972.86 198052.70,35972.86 198027.70,35966.37 198027.70,35966.37 198003.93,35960.28 198003.93,35960.28 197979.75,35954.07 197979.75,35954.07 197936.64,35943.03 197936.64,35943.03 197911.70,35936.57 197911.70,35936.57 197888.40,35930.69 197888.40,35930.69 197876.40,35927.59 197876.40,35927.59 197862.39,35923.99 197862.39,35923.99 197847.79,35920.23 197847.79,35920.23 197844.22,35919.36">
        <lane index="0" width="3.66" type="shoulder" disallow="all" />
        <lane index="1" width="3.66" />
        <lane index="2" width="3.66" />
        <lane index="3" width="3.66" />
        <lane index="4" width="3.66" type="shoulder" disallow="all" />
    </edge>
    <edge id="122.0" from="node_122_start" to="node_120_start" numLanes="5" speed="13.89" type="town" shape="199357.73,36284.92 199271.18,36269.35 199271.18,36269.35 199249.65,36265.42 199249.65,36265.42 199229.15,36261.45 199229.15,36261.45 199211.78,36258.04 199211.78,36258.04 199187.51,36253.20 199187.51,36253.20 199131.20,36241.72 199131.20,36241.72 199065.15,36227.62 199065.15,36227.62 199047.31,36223.63 199047.31,36223.63 199022.18,36218.02 199022.18,36218.02 199004.30,36214.18 199004.30,36214.18 198944.16,36200.28 198944.16,36200.28 198902.26,36190.28 198902.26,36190.28 198847.73,36176.90 198847.73,36176.90 198833.79,36173.42 198833.79,36173.42 198816.91,36169.14 198816.91,36169.14 198800.01,36164.83 198800.01,36164.83 198785.72,36161.17 198785.72,36161.17 198764.70,36155.76 198764.70,36155.76 198740.84,36149.65 198740.84,36149.65 198723.95,36145.28 198723.95,36145.28 198708.08,36141.26 198708.08,36141.26 198686.69,36135.75 198686.69,36135.75 198644.69,36124.96 198644.69,36124.96 198627.79,36120.43 198627.79,36120.43 198611.99,36116.53 198611.99,36116.53 198598.99,36113.17 198598.99,36113.17 198578.58,36107.97 198578.58,36107.97 198556.44,36102.21 198556.44,36102.21 198534.79,36096.76 198534.79,36096.76 198474.20,36081.22 198474.20,36081.22 198454.96,36076.17 198454.96,36076.17 198438.35,36071.93 198438.35,36071.93 198417.61,36066.69 198417.61,36066.69 198399.42,36062.05 198399.42,36062.05 198380.43,36057.19 198380.43,36057.19 198358.88,36051.68 198358.88,36051.68 198340.39,36046.86 198340.39,36046.86 198322.91,36042.43 198322.91,36042.43 198308.19,36038.63 198308.19,36038.63 198294.05,36035.01 198294.05,36035.01 198278.19,36030.92 198278.19,36030.92 198263.71,36027.20 198263.71,36027.20 198250.49,36023.79 198250.49,36023.79 198222.37,36016.62 198222.37,36016.62 198170.24,36003.23 198170.24,36003.23 198144.30,35996.50 198144.30,35996.50 198125.55,35991.60">
        <lane index="0" width="3.66" type="shoulder" disallow="all" />
        <lane index="1" width="3.66" />
        <lane index="2" width="3.66" />
        <lane index="3" width="3.66" />
        <lane index="4" width="3.66" type="shoulder" disallow="all" />
    </edge>
    <edge id="123.0" from="node_119_end" to="node_123_end" numLanes="3" speed="13.89" type="town" shape="197524.89,35844.99 197508.74,35840.88 197508.74,35840.88 197488.70,35835.72 197488.70,35835.72 197466.60,35830.01 197466.60,35830.01 197447.01,35825.00 197447.01,35825.00 197425.89,35819.55 197425.89,35819.55 197403.14,35813.74 197403.14,35813.74 197378.94,35807.51 197378.94,35807.51 197360.89,35802.87 197360.89,35802.87 197343.78,35798.53 197343.78,35798.53 197320.92,35792.61 197320.92,35792.61 197291.76,35785.16 197291.76,35785.16 197262.23,35777.49 197262.23,35777.49 197217.21,35766.02 197217.21,35766.02 197205.03,35762.92 197205.03,35762.92 197198.99,35761.35 197198.99,35761.35 197192.99,35759.71 197192.99,35759.71 197184.32,35757.18 197184.32,35757.18 197168.77,35752.54 197168.77,35752.54 197157.54,35749.25 197157.54,35749.25 197146.89,35746.09">
        <lane index="0" width="3.66" type="shoulder" disallow="all" />
        <lane index="1" width="3.66" />
        <lane index="2" width="3.66" />
    </edge>
    <edge id="124.0" from="node_121_end" to="node_124_end" numLanes="5" speed="13.89" type="town" shape="197844.22,35919.36 197827.89,35915.14 197827.89,35915.14 197809.45,35910.37">
        <lane index="0" width="3.66" type="shoulder" disallow="all" />
        <lane index="1" width="3.66" />
        <lane index="2" width="3.66" />
        <lane index="3" width="3.66" />
        <lane index="4" width="3.66" type="shoulder" disallow="all" />
    </edge>
    <edge id="125.0" from="node_125_start" to="node_125_end" numLanes="2" speed="13.89" type="town" shape="191890.95,34401.86 191868.99,34396.13 191868.99,34396.13 191845.05,34390.19 191845.05,34390.19 191830.83,34386.47 191830.83,34386.47 191814.77,34382.29 191814.77,34382.29 191794.90,34377.17 191794.90,34377.17 191785.69,34374.85 191785.69,34374.85 191776.40,34372.44 191776.40,34372.44 191754.79,34367.00 191754.79,34367.00 191739.12,34362.89 191739.12,34362.89 191721.85,34358.44 191721.85,34358.44 191711.37,34355.75 191711.37,34355.75 191701.17,34353.11 191701.17,34353.11 191689.81,34350.00 191689.81,34350.00 191671.16,34344.96 191671.16,34344.96 191660.32,34342.00 191660.32,34342.00 191654.31,34340.35">
        <lane index="0" width="3.66" />
        <lane index="1" width="3.66" />
    </edge>
    <edge id="126.0" from="node_126_start" to="node_126_end" numLanes="3" speed="13.89" type="town" shape="195057.31,35210.25 195044.37,35206.80 195044.37,35206.80 195028.70,35202.73 195028.70,35202.73 195009.95,35197.90 195009.95,35197.90 194989.51,35192.60 194989.51,35192.60 194974.35,35188.70 194974.35,35188.70 194952.44,35183.05 194952.44,35183.05 194936.39,35179.01 194936.39,35179.01 194921.40,35175.10 194921.40,35175.10 194904.91,35170.91 194904.91,35170.91 194891.21,35167.36 194891.21,35167.36 194874.16,35163.02 194874.16,35163.02 194855.40,35158.21 194855.40,35158.21 194835.69,35153.17 194835.69,35153.17 194820.38,35149.22 194820.38,35149.22 194811.41,35146.90 194811.41,35146.90 194799.42,35143.87">
        <lane index="0" width="3.66" type="shoulder" disallow="all" />
        <lane index="1" width="3.66" />
        <lane index="2" width="3.66" />
    </edge>
    <edge id="128.0" from="node_128_start" to="node_128_end" numLanes="2" speed="13.89" type="town" shape="193832.48,34895.81 193812.79,34890.74 193812.79,34890.74 193786.03,34883.85 193786.03,34883.85 193774.27,34880.83">
        <lane index="0" width="3.66" />
        <lane index="1" width="3.66" />
    </edge>
    <edge id="129.0" from="junction_9" to="node_129_end" numLanes="3" speed="13.89" type="town" shape="194316.65,35020.02 194310.07,35018.32">
        <lane index="0" width="3.66" />
        <lane index="1" width="3.66" />
        <lane index="2" width="3.66" />
    </edge>
    <edge id="13.0" from="junction_3" to="node_0_start" numLanes="5" speed="13.89" type="town" shape="218786.15,39326.06 218777.17,39327.53 218777.17,39327.53 218763.73,39329.75 218763.73,39329.75 218752.08,39331.71 218752.08,39331.71 218737.81,39334.13 218737.81,39334.13 218717.47,39337.74 218717.47,39337.74 218709.93,39338.92">
        <lane index="0" width="3.66" />
        <lane index="1" width="3.66" />
        <lane index="2" width="3.66" />
        <lane index="3" width="3.66" />
        <lane index="4" width="3.66" type="shoulder" disallow="all" />
    </edge>
    <edge id="131.0" from="junction_121" to="node_131_end" numLanes="1" speed="13.89" type="town" shape="195225.78,35261.15 195214.30,35259.56 195214.30,35259.56 195205.00,35258.15 195205.00,35258.15 195190.95,35255.79 195190.95,35255.79 195176.92,35253.30 195176.92,35253.30 195176.06,35253.13 195176.06,35253.13 195140.74,35246.16 195140.74,35246.16 195118.76,35241.37 195118.76,35241.37 195084.93,35234.68 195084.93,35234.68 195069.19,35232.34 195069.19,35232.34 195048.17,35229.16">
        <lane index="0" width="3.66" />
    </edge>
    <edge id="132.0" from="node_125_end" to="node_132_end" numLanes="2" speed="13.89" type="town" shape="191654.31,34340.35 191627.81,34333.22 191627.81,34333.22 191609.78,34328.61 191609.78,34328.61 191587.65,34323.21 191587.65,34323.21 191565.19,34318.13 191565.19,34318.13 191540.21,34312.46 191540.21,34312.46 191514.10,34306.60 191514.10,34306.60 191481.98,34299.05 191481.98,34299.05 191441.93,34288.88 191441.93,34288.88 191392.61,34276.17 191392.61,34276.17 191366.90,34269.62 191366.90,34269.62 191333.75,34261.04 191333.75,34261.04 191289.48,34249.72 191289.48,34249.72 191251.63,34239.97 191251.63,34239.97 191200.37,34226.87 191200.37,34226.87 191173.03,34219.86 191173.03,34219.86 191141.78,34211.81 191141.78,34211.81 191117.75,34205.62 191117.75,34205.62 191091.75,34198.99 191091.75,34198.99 191070.94,34193.62 191070.94,34193.62 191058.47,34190.48 191058.47,34190.48 191045.93,34187.23 191045.93,34187.23 191021.77,34181.10 191021.77,34181.10 190991.27,34173.22 190991.27,34173.22 190939.39,34159.91 190939.39,34159.91 190895.57,34148.64 190895.57,34148.64 190871.86,34142.54 190871.86,34142.54 190841.33,34134.68 190841.33,34134.68 190807.84,34126.06 190807.84,34126.06 190773.90,34117.39 190773.90,34117.39 190752.03,34111.69 190752.03,34111.69 190718.20,34103.07 190718.20,34103.07 190687.86,34095.32 190687.86,34095.32 190654.86,34086.83 190654.86,34086.83 190636.87,34082.26">
        <lane index="0" width="3.66" />
        <lane index="1" width="3.66" />
    </edge>
    <edge id="133.0" from="node_133_start" to="junction_9" numLanes="1" speed="13.89" type="town" shape="194428.58,35070.88 194423.63,35065.76 194423.63,35065.76 194420.62,35063.45 194420.62,35063.45 194416.22,35061.06 194416.22,35061.06 194403.63,35056.24 194403.63,35056.24 194389.54,35051.22 194389.54,35051.22 194375.69,35046.46 194375.69,35046.46 194364.37,35042.80">
        <lane index="0" width="3.66" />
    </edge>
    <edge id="134.0" from="node_134_start" to="node_134_end" numLanes="2" speed="13.89" type="town" shape="184363.86,32473.70 184349.70,32470.06 184349.70,32470.06 184335.41,32466.15 184335.41,32466.15 184319.11,32461.61 184319.11,32461.61 184304.01,32457.50 184304.01,32457.50 184288.38,32453.22 184288.38,32453.22 184263.66,32446.68 184263.66,32446.68 184255.19,32444.50 184255.19,32444.50 184234.54,32439.43 184234.54,32439.43 184212.50,32434.26 184212.50,32434.26 184197.29,32430.60 184197.29,32430.60 184176.42,32425.89 184176.42,32425.89 184156.11,32421.33 184156.11,32421.33 184131.17,32415.67 184131.17,32415.67 184114.32,32411.73 184114.32,32411.73 184085.54,32404.94 184085.54,32404.94 184058.26,32398.54 184058.26,32398.54 184032.08,32392.72 184032.08,32392.72 184013.04,32388.51 184013.04,32388.51 183993.42,32384.35 183993.42,32384.35 183967.81,32379.12 183967.81,32379.12 183929.53,32371.59 183929.53,32371.59 183891.54,32364.56 183891.54,32364.56 183855.86,32358.62 183855.86,32358.62 183821.08,32352.39 183821.08,32352.39 183805.44,32349.98 183805.44,32349.98 183787.55,32347.44 183787.55,32347.44 183732.61,32339.88 183732.61,32339.88 183709.87,32336.79 183709.87,32336.79 183672.28,32331.70 183672.28,32331.70 183653.69,32329.15 183653.69,32329.15 183631.83,32326.18 183631.83,32326.18 183591.32,32320.63 183591.32,32320.63 183561.72,32316.54 183561.72,32316.54 183516.56,32310.44 183516.56,32310.44 183468.47,32303.89 183468.47,32303.89 183422.94,32297.63 183422.94,32297.63 183373.93,32290.91 183373.93,32290.91 183323.35,32284.12 183323.35,32284.12 183279.15,32278.10 183279.15,32278.10 183237.64,32272.35 183237.64,32272.35 183197.65,32266.89 183197.65,32266.89 183165.11,32262.45 183165.11,32262.45 183106.73,32254.57 183106.73,32254.57 183061.10,32248.47 183061.10,32248.47 183012.46,32242.40 183012.46,32242.40 182992.56,32240.06 182992.56,32240.06 182972.68,32237.91 182972.68,32237.91 182945.99,32235.08 182945.99,32235.08 182912.10,32231.76 182912.10,32231.76 182877.81,32228.27 182877.81,32228.27 182849.40,32225.25 182849.40,32225.25 182813.17,32221.06 182813.17,32221.06 182793.00,32218.49 182793.00,32218.49 182772.38,32215.75 182772.38,32215.75 182747.96,32212.52 182747.96,32212.52 182711.57,32207.58 182711.57,32207.58 182678.24,32203.23 182678.24,32203.23 182664.58,32201.42 182664.58,32201.42 182650.84,32199.78 182650.84,32199.78 182631.55,32197.60 182631.55,32197.60 182609.39,32195.01">
        <lane index="0" width="3.66" />
        <lane index="1" width="3.66" />
    </edge>
    <edge id="135.0" from="node_135_start" to="node_135_end" numLanes="2" speed="13.89" type="town" shape="184630.22,32542.26 184617.63,32539.04 184617.63,32539.04 184605.04,32535.83 184605.04,32535.83 184592.46,32532.61 184592.46,32532.61 184579.87,32529.40">
        <lane index="0" width="3.66" />
        <lane index="1" width="3.66" />
    </edge>
    <edge id="136.0" from="node_135_end" to="node_136_end" numLanes="2" speed="13.89" type="town" shape="184579.87,32529.40 184565.00,32525.53 184565.00,32525.53 184547.17,32521.02 184547.17,32521.02 184528.76,32516.17 184528.76,32516.17 184507.14,32510.57 184507.14,32510.57 184474.95,32502.36 184474.95,32502.36 184456.35,32497.64">
        <lane index="0" width="3.66" />
        <lane index="1" width="3.66" />
    </edge>
    <edge id="137.0" from="node_137_start" to="node_137_end" numLanes="2" speed="13.89" type="town" shape="186364.66,32986.53 186351.03,32983.03 186351.03,32983.03 186337.39,32979.53 186337.39,32979.53 186323.75,32976.04 186323.75,32976.04 186310.12,32972.54">
        <lane index="0" width="3.66" />
        <lane index="1" width="3.66" />
    </edge>
    <edge id="138.0" from="node_137_end" to="node_138_end" numLanes="2" speed="13.89" type="town" shape="186310.12,32972.54 186293.81,32968.37 186293.81,32968.37 186259.79,32959.64">
        <lane index="0" width="3.66" />
        <lane index="1" width="3.66" />
    </edge>
    <edge id="139.0" from="node_136_end" to="node_134_start" numLanes="2" speed="13.89" type="town" shape="184456.35,32497.64 184428.61,32490.52 184428.61,32490.52 184406.98,32485.02 184406.98,32485.02 184397.21,32482.48 184397.21,32482.48 184385.17,32479.36 184385.17,32479.36 184363.86,32473.70">
        <lane index="0" width="3.66" />
        <lane index="1" width="3.66" />
    </edge>
    <edge id="140.0" from="node_140_start" to="node_140_end" numLanes="3" speed="13.89" type="town" shape="178316.48,31309.06 178296.17,31302.86 178296.17,31302.86 178284.45,31299.26 178284.45,31299.26 178266.32,31293.57">
        <lane index="0" width="3.66" type="shoulder" disallow="all" />
        <lane index="1" width="3.66" />
        <lane index="2" width="3.66" />
    </edge>
    <edge id="141.0" from="junction_120" to="node_140_start" numLanes="2" speed="13.89" type="town" shape="178392.51,31332.54 178367.35,31325.01 178367.35,31325.01 178337.64,31315.60 178337.64,31315.60 178316.48,31309.06">
        <lane index="0" width="3.66" />
        <lane index="1" width="3.66" />
    </edge>
    <edge id="142.0" from="node_142_start" to="node_142_end" numLanes="2" speed="13.89" type="town" shape="181972.13,32087.72 181932.85,32080.33 181932.85,32080.33 181909.50,32075.90 181909.50,32075.90 181884.07,32071.05 181884.07,32071.05 181851.94,32065.13 181851.94,32065.13 181823.12,32059.64 181823.12,32059.64 181790.71,32053.59 181790.71,32053.59 181758.29,32047.38 181758.29,32047.38 181720.84,32040.33 181720.84,32040.33 181688.06,32034.20 181688.06,32034.20 181647.10,32026.47 181647.10,32026.47 181602.89,32018.17 181602.89,32018.17 181576.12,32013.10 181576.12,32013.10 181535.06,32005.34 181535.06,32005.34 181502.31,31999.20 181502.31,31999.20 181462.98,31991.73 181462.98,31991.73 181428.11,31985.17 181428.11,31985.17 181392.34,31978.42 181392.34,31978.42 181350.53,31970.56 181350.53,31970.56 181319.68,31964.70 181319.68,31964.70 181290.15,31959.16 181290.15,31959.16 181251.08,31951.82 181251.08,31951.82 181216.66,31945.35 181216.66,31945.35 181180.37,31938.49 181180.37,31938.49 181161.06,31934.89 181161.06,31934.89 181129.52,31928.90 181129.52,31928.90 181104.14,31924.13 181104.14,31924.13 181075.86,31918.73 181075.86,31918.73 181048.26,31913.57 181048.26,31913.57 181025.06,31909.18 181025.06,31909.18 181000.02,31904.52 181000.02,31904.52 180974.94,31899.76 180974.94,31899.76 180946.36,31894.40 180946.36,31894.40 180909.07,31887.32 180909.07,31887.32 180881.72,31882.17 180881.72,31882.17 180852.02,31876.57 180852.02,31876.57 180818.81,31870.36 180818.81,31870.36 180780.78,31863.18">
        <lane index="0" width="3.66" />
        <lane index="1" width="3.66" />
    </edge>
    <edge id="143.0" from="node_143_start" to="node_142_start" numLanes="2" speed="13.89" type="town" shape="182246.05,32141.09 182234.24,32138.91 182234.24,32138.91 182220.93,32136.31 182220.93,32136.31 182207.99,32133.90 182207.99,32133.90 182192.80,32131.07 182192.80,32131.07 182176.17,32128.01 182176.17,32128.01 182155.73,32124.14 182155.73,32124.14 182128.70,32119.16 182128.70,32119.16 182104.57,32114.45 182104.57,32114.45 182089.26,32111.39 182089.26,32111.39 182074.94,32108.32 182074.94,32108.32 182059.64,32105.06 182059.64,32105.06 182044.19,32101.73 182044.19,32101.73 182030.29,32098.91 182030.29,32098.91 182014.95,32095.82 182014.95,32095.82 181998.65,32092.58 181998.65,32092.58 181972.13,32087.72">
        <lane index="0" width="3.66" />
        <lane index="1" width="3.66" />
    </edge>