<routes xmlns:xsi="http://www.w3.org/2001/XMLSchema-instance" xsi:noNamespaceSchemaLocation="http://sumo.dlr.de/xsd/routes_file.xsd">
    <vType id="vehicle_passenger" vClass="passenger" />
<route id="av_route" edges="812.0 811.0 137.0 138.0 235.0 merge_zone_61 904.0 905.0 809.0 135.0 136.0 139.0 134.0 144.0 143.0 142.0 789.0 833.0 834.0 829.0 merge_zone_62 907.0 793.0 141.0 140.0 790.0 791.0 158.0 164.0 162.0 153.0 166.0 149.0 155.0 154.0 167.0 157.0 150.0 161.0 165.0 152.0 160.0 171.0 195.0 184.0 merge_zone_14 193.0 196.0 192.0 177.0 181.0 merge_zone_12 174.0 176.0 178.0 182.0 191.0 merge_zone_13 183.0 204.0 205.0 202.0 201.0 212.0 208.0 215.0 213.0 224.0 221.0 223.0 222.0 229.0 merge_zone_17 228.0 502.0 501.0 480.0 331.0 323.0 324.0 328.0 325.0 334.0 332.0 336.0 merge_zone_25 337.0 340.0 344.0 343.0 346.0 342.0 351.0 352.0 353.0 merge_zone_27 355.0 366.0 371.0 363.0 369.0 361.0 373.0 488.0 374.0 379.0 375.0 384.0 382.0 387.0 390.0 392.0 397.0 395.0 398.0 399.0 403.0 401.0 400.0 414.0 410.0 413.0 408.0 425.0 419.0 421.0 422.0 420.0 436.0 437.0 432.0 433.0 merge_zone_34 434.0 468.0 446.0 451.0 472.0 458.0 447.0 465.0 470.0 473.0 443.0 449.0 477.0 441.0 450.0 445.0 455.0 767.0 768.0 766.0 506.0 512.0 505.0 511.0 516.0 504.0 507.0 508.0 525.0 538.0 524.0 532.0 536.0 545.0 774.0 523.0 543.0 551.0 550.0 534.0 541.0 540.0 533.0 549.0 528.0 526.0 553.0 566.0 568.0 577.0 564.0 580.0 561.0 554.0 573.0 559.0 555.0 557.0 563.0 562.0 560.0 592.0 609.0 601.0 594.0 613.0 614.0 597.0 587.0 604.0 589.0 584.0 606.0 603.0 585.0 612.0 599.0 596.0 598.0 583.0 640.0 630.0 641.0 merge_zone_48 638.0 635.0 632.0 629.0 631.0 625.0 626.0 633.0 655.0 654.0 649.0 652.0 661.0 651.0 653.0 866.0 867.0 865.0 873.0 870.0 876.0 875.0 889.0 merge_zone_60 888.0 883.0 881.0 887.0 665.0 666.0 672.0 675.0 663.0 664.0 688.0 699.0 695.0 700.0 708.0 709.0 690.0 692.0 694.0 678.0 697.0 698.0" /><vehicle id="vehicle4" type="vehicle_passenger" depart="2.80">
        <route edges="522.0 505.0 511.0 516.0 504.0 507.0 508.0 525.0 538.0 524.0 532.0 536.0 545.0 774.0 523.0 543.0 551.0 550.0 534.0 541.0 540.0 533.0 549.0 528.0 526.0 553.0 566.0 568.0 577.0 564.0 580.0 561.0 554.0 573.0 559.0 574.0 557.0 563.0 562.0 560.0 592.0 609.0 601.0 594.0 613.0 614.0 597.0 587.0 604.0 589.0 584.0 606.0 617.0" />
    </vehicle>
    <vehicle id="vehicle6" type="vehicle_passenger" depart="4.20">
        <route edges="32.0 38.0 27.0 76.0 merge_zone_18 232.0 63.0 68.0 58.0 73.0 66.0 64.0 72.0 60.0 65.0 53.0 71.0 846.0 merge_zone_5 57.0 59.0 850.0 853.0 56.0 67.0" />
    </vehicle>
    <vehicle id="vehicle13" type="vehicle_passenger" depart="9.10">
        <route edges="345.0 343.0 346.0 342.0 351.0 352.0 353.0 merge_zone_27 355.0 366.0 371.0 363.0 369.0 361.0 373.0 488.0 374.0 379.0 375.0 384.0 382.0 387.0 390.0 392.0 397.0 395.0 398.0 399.0 403.0 401.0 400.0 414.0 410.0 413.0 408.0 425.0 419.0 421.0 422.0 420.0 436.0 437.0 432.0 433.0 merge_zone_34 434.0 468.0 446.0 451.0 472.0 458.0 447.0 465.0 470.0 473.0 443.0 449.0 477.0 441.0 450.0 445.0 455.0 767.0 768.0 766.0 506.0 512.0 505.0 511.0 516.0 504.0 507.0 508.0 525.0 538.0 524.0 532.0 536.0 545.0 774.0 523.0 543.0 551.0 550.0 534.0 541.0 540.0 533.0 549.0 528.0 526.0 553.0 566.0 568.0 577.0 564.0 580.0 561.0 554.0 573.0 559.0 574.0 557.0 563.0 562.0 560.0 592.0 609.0 601.0 594.0 613.0 614.0 597.0 587.0 604.0 589.0 584.0 606.0 603.0 585.0 612.0 599.0 596.0 607.0 583.0 644.0 623.0" />
    </vehicle>
    <vehicle id="vehicle25" type="vehicle_passenger" depart="17.50">
        <route edges="190.0 185.0 merge_zone_14 193.0 196.0 192.0 177.0 181.0 merge_zone_12 174.0 176.0 178.0 182.0 191.0 merge_zone_13 183.0 204.0 205.0 202.0 201.0 212.0 208.0 215.0 213.0 224.0 221.0 223.0 222.0 229.0 merge_zone_17 228.0 502.0 501.0 480.0 331.0 323.0 324.0 328.0 325.0 334.0 332.0 336.0 merge_zone_25 337.0 340.0 344.0 343.0 346.0 342.0 351.0 352.0 353.0 merge_zone_27 355.0 366.0 371.0 363.0 369.0 361.0 373.0 488.0 374.0 379.0 375.0 384.0 382.0 387.0 390.0 392.0 397.0 395.0 398.0 399.0 403.0 401.0 400.0 414.0 410.0 413.0 408.0 425.0 419.0 421.0 422.0 420.0 436.0 437.0 432.0 433.0 merge_zone_34 434.0 468.0 446.0 451.0 472.0 458.0 447.0 465.0 470.0 473.0 443.0 449.0 477.0 441.0 450.0 445.0 455.0 767.0 768.0 766.0 506.0 512.0 505.0 511.0 516.0 504.0 507.0 508.0 525.0 538.0 524.0 532.0 536.0 545.0 774.0 523.0 543.0 551.0 550.0 534.0 541.0 540.0 533.0 549.0 528.0 526.0 553.0 566.0 568.0 577.0 564.0 580.0 561.0 554.0 573.0 559.0 574.0 557.0 563.0 562.0 560.0 592.0 609.0 601.0 594.0 613.0 614.0 597.0 587.0 604.0 589.0 584.0 606.0 617.0" />
    </vehicle>
    <vehicle id="vehicle37" type="vehicle_passenger" depart="25.90">
        <route edges="169.0 158.0 164.0 162.0 153.0 166.0 149.0 155.0 154.0 167.0 157.0 150.0 161.0 165.0 152.0 160.0 171.0 195.0 184.0 merge_zone_14 193.0 196.0 192.0 177.0 181.0 merge_zone_12 174.0 176.0 178.0 182.0 191.0 merge_zone_13 183.0 204.0 205.0 202.0 201.0 212.0 208.0 215.0 213.0 224.0 221.0 223.0 222.0 229.0 merge_zone_17 228.0 502.0 501.0 480.0 331.0 323.0 324.0 328.0 325.0 334.0 332.0 336.0 merge_zone_25 337.0 340.0 344.0 343.0 346.0 342.0 351.0 352.0 353.0 merge_zone_27 355.0 366.0 371.0 363.0 369.0 361.0 373.0 488.0 374.0 379.0 375.0 384.0 382.0 387.0 390.0 392.0 397.0 395.0 398.0 399.0 403.0 401.0 400.0 414.0 410.0 413.0 408.0 425.0 419.0 421.0 422.0 420.0 436.0 437.0 432.0 433.0 merge_zone_34 434.0 468.0 446.0 451.0 472.0 458.0 447.0 465.0 470.0 473.0 443.0 449.0 477.0 441.0 450.0 445.0 455.0 767.0 768.0 766.0 506.0 512.0 505.0 511.0 516.0 504.0 507.0 508.0 525.0 538.0 524.0 532.0 536.0 545.0 774.0 523.0 543.0 551.0 535.0" />
    </vehicle>
    <vehicle id="vehicle54" type="vehicle_passenger" depart="37.80">
        <route edges="201.0 212.0 208.0 215.0 213.0 224.0 221.0 223.0 222.0 229.0 merge_zone_17 228.0 502.0 501.0 480.0 331.0 323.0 324.0 328.0 325.0 335.0 333.0" />
    </vehicle>
    <vehicle id="vehicle56" type="vehicle_passenger" depart="39.20">
        <route edges="816.0 815.0 769.0 819.0 820.0 812.0 811.0 137.0 138.0 235.0 merge_zone_61 904.0 905.0 809.0 135.0 136.0 139.0 134.0 144.0 143.0 142.0 789.0 833.0 834.0 829.0 merge_zone_62 907.0 793.0 141.0 140.0 790.0 791.0 158.0 164.0 162.0 153.0 166.0 149.0 155.0 154.0 167.0 157.0 150.0 161.0 165.0 152.0 160.0 171.0 195.0 184.0 merge_zone_14 193.0 196.0 192.0 177.0 181.0 merge_zone_12 174.0 176.0 178.0 182.0 191.0 merge_zone_13 183.0 204.0 205.0 202.0 201.0 212.0 208.0 215.0 213.0 224.0 221.0 223.0 222.0 229.0 merge_zone_17 228.0 502.0 501.0 480.0 331.0 323.0 324.0 328.0 325.0 334.0 332.0 336.0 merge_zone_25 337.0 340.0 344.0 343.0 346.0 342.0 351.0 352.0 353.0 merge_zone_27 355.0 366.0 371.0 363.0 369.0 361.0 373.0 488.0 374.0 379.0 375.0 384.0 382.0 387.0 390.0 392.0 397.0 395.0 398.0 399.0 403.0 401.0 400.0 414.0 410.0 413.0 408.0 425.0 419.0 421.0 422.0 420.0 436.0 437.0 432.0 433.0 merge_zone_34 434.0 468.0 446.0 451.0 472.0 458.0 447.0 465.0 470.0 473.0 443.0 449.0 477.0 441.0 450.0 445.0 455.0 767.0 768.0 766.0 506.0 512.0 505.0 511.0 516.0 504.0 507.0 508.0 525.0 538.0 524.0 532.0 536.0 545.0 774.0 523.0 543.0 551.0 550.0 534.0 541.0 540.0 533.0 549.0 528.0 526.0 553.0 567.0" />
    </vehicle>
    <vehicle id="vehicle59" type="vehicle_passenger" depart="41.30">
        <route edges="464.0 451.0 472.0 458.0 447.0 465.0 470.0 473.0 443.0 449.0 477.0 441.0 450.0 445.0 455.0 767.0 768.0 766.0 506.0 512.0 505.0 511.0 516.0 504.0 507.0 508.0 525.0 538.0 524.0 532.0 536.0 545.0 774.0 523.0 543.0 551.0 550.0 534.0 541.0 540.0 533.0 549.0 528.0 526.0 553.0 566.0 568.0 577.0 564.0 580.0 561.0 554.0 573.0 559.0 574.0 557.0 563.0 562.0 560.0 592.0 609.0 601.0 594.0 613.0 614.0 597.0 587.0 604.0 589.0 584.0 606.0 603.0 585.0 612.0 599.0 596.0 607.0 583.0 640.0 630.0 641.0 merge_zone_48 638.0 635.0 632.0 629.0 631.0 625.0 626.0 633.0 655.0 654.0 649.0 652.0 661.0 651.0 653.0 866.0 867.0 865.0 873.0 870.0 876.0 875.0 889.0 merge_zone_60 888.0 883.0 881.0 887.0 665.0 673.0 672.0 675.0 663.0 664.0 688.0 699.0 695.0 701.0 708.0 709.0 690.0 692.0 694.0 678.0 697.0 698.0 687.0 696.0 710.0 683.0 703.0" />
    </vehicle>
    <vehicle id="vehicle77" type="vehicle_passenger" depart="53.90">
        <route edges="339.0 338.0 merge_zone_25 337.0 340.0 344.0 343.0 346.0 342.0 351.0 352.0 353.0 merge_zone_27 355.0 366.0 371.0 363.0 369.0 361.0 373.0 488.0 374.0 379.0 375.0 384.0 382.0 387.0 390.0 392.0 397.0 395.0 398.0 399.0 403.0 401.0 400.0 414.0 410.0 413.0 408.0 425.0 419.0 421.0 422.0 420.0 436.0 437.0 432.0 433.0 merge_zone_34 434.0 468.0 446.0 451.0 472.0 458.0 447.0 465.0 470.0 473.0 443.0 449.0 477.0 441.0 450.0 445.0 455.0 767.0 768.0 766.0 506.0 512.0 505.0 511.0 516.0 504.0 507.0 508.0 525.0 538.0 524.0 532.0 536.0 545.0 774.0 523.0 543.0 551.0 550.0 534.0 541.0 540.0 533.0 549.0 528.0 526.0 553.0 566.0 568.0 577.0 564.0 580.0 561.0 554.0 573.0 559.0 574.0 557.0 563.0 562.0 560.0 592.0 609.0 601.0 594.0 613.0 614.0 597.0 587.0 604.0 589.0 584.0 606.0 603.0 585.0 612.0 599.0 596.0 607.0 583.0 640.0 630.0 641.0 merge_zone_48 638.0 635.0 632.0 629.0 631.0 625.0 626.0 633.0 655.0 654.0 649.0 652.0 661.0 651.0 653.0 866.0 867.0 865.0 873.0 870.0 876.0 875.0 889.0 merge_zone_60 888.0 883.0 881.0 887.0 665.0 673.0 672.0 675.0 663.0 664.0 688.0 699.0 695.0 701.0 708.0 709.0 690.0 692.0" />
    </vehicle>
    <vehicle id="vehicle83" type="vehicle_passenger" depart="58.10">
        <route edges="228.0 502.0 501.0 480.0 331.0 323.0 324.0 328.0 325.0 334.0 332.0 336.0 merge_zone_25 337.0 340.0 344.0 343.0 346.0 342.0 351.0 352.0 353.0 merge_zone_27 355.0 366.0 371.0 363.0 369.0 361.0 373.0 488.0 374.0 379.0 375.0 384.0 382.0 387.0 390.0 392.0 397.0 395.0 398.0 399.0 403.0 401.0 400.0 414.0 410.0 413.0 408.0 425.0 419.0 421.0 422.0 420.0 436.0 437.0 432.0 433.0 merge_zone_34 434.0 468.0 446.0 451.0 472.0 458.0 447.0 465.0 470.0 473.0 443.0 449.0 477.0 441.0 450.0 445.0 455.0 767.0 768.0 766.0 506.0 512.0 505.0 511.0 516.0 504.0 507.0 508.0 525.0 538.0 524.0 532.0 536.0 545.0 774.0 523.0 543.0 551.0 550.0 534.0 541.0 540.0 533.0 549.0 528.0 526.0 553.0 567.0" />
    </vehicle>
    <vehicle id="vehicle92" type="vehicle_passenger" depart="64.40">
        <route edges="206.0 200.0 201.0 212.0 208.0 215.0 213.0 224.0 221.0 223.0 222.0 229.0 merge_zone_17 228.0 502.0 501.0 480.0 331.0 323.0 324.0 328.0 325.0 334.0 332.0 336.0 merge_zone_25 337.0 349.0 341.0" />
    </vehicle>
    <vehicle id="vehicle97" type="vehicle_passenger" depart="67.90">
        <route edges="595.0 622.0 601.0 594.0 613.0 614.0 597.0 587.0 604.0 589.0 584.0 606.0 603.0 585.0 612.0 599.0 596.0 607.0 583.0 644.0 623.0" />
    </vehicle>
    <vehicle id="vehicle98" type="vehicle_passenger" depart="68.60">
        <route edges="464.0 451.0 472.0 458.0 447.0 465.0 470.0 473.0 443.0 449.0 477.0 441.0 450.0 445.0 455.0 767.0 768.0 766.0 506.0 512.0 505.0 511.0 516.0 504.0 507.0 508.0 525.0 538.0 524.0 532.0 536.0 545.0 774.0 523.0 543.0 551.0 550.0 534.0 541.0 540.0 533.0 549.0 528.0 526.0 553.0 567.0" />
    </vehicle>
    <vehicle id="vehicle100" type="vehicle_passenger" depart="70.00">
        <route edges="590.0 596.0 607.0 583.0 640.0 630.0 641.0 merge_zone_48 638.0 635.0 632.0 629.0 631.0 625.0 626.0 633.0 655.0 654.0 649.0 652.0 661.0 651.0 653.0 866.0 867.0 865.0 873.0 870.0 876.0 875.0 889.0 merge_zone_60 888.0 883.0 881.0 887.0 665.0 673.0 672.0 675.0 663.0 664.0 688.0 699.0 695.0 701.0 708.0 712.0 681.0" />
    </vehicle>
    <vehicle id="vehicle104" type="vehicle_passenger" depart="72.80">
        <route edges="619.0 585.0 612.0 599.0 596.0 607.0 583.0 644.0 623.0" />
    </vehicle>
    <vehicle id="vehicle116" type="vehicle_passenger" depart="81.20">
        <route edges="679.0 693.0 677.0 705.0 689.0 680.0 702.0 682.0 717.0 863.0 723.0 859.0 856.0 858.0 724.0 718.0 729.0 726.0 716.0 715.0 719.0 721.0 722.0 746.0 745.0 747.0 merge_zone_54 740.0 744.0 742.0 748.0" />
    </vehicle>
    <vehicle id="vehicle117" type="vehicle_passenger" depart="81.90">
        <route edges="911.0 merge_zone_62 907.0 793.0 141.0 140.0 790.0 791.0 158.0 164.0 162.0 153.0 166.0 149.0 155.0 154.0 167.0 157.0 150.0 161.0 165.0 152.0 160.0 171.0 195.0 184.0 merge_zone_14 193.0 196.0 192.0 177.0 181.0 merge_zone_12 174.0 176.0 178.0 182.0 191.0 merge_zone_13 183.0 204.0 205.0 202.0 201.0 212.0 208.0 215.0 213.0 224.0 221.0 223.0 222.0 229.0 merge_zone_17 228.0 502.0 501.0 480.0 331.0 323.0 324.0 328.0 325.0 334.0 332.0 336.0 merge_zone_25 337.0 340.0 344.0 343.0 346.0 342.0 351.0 352.0 353.0 merge_zone_27 355.0 366.0 371.0 363.0 369.0 361.0 373.0 488.0 374.0 379.0 375.0 384.0 382.0 387.0 390.0 392.0 397.0 395.0 398.0 399.0 403.0 401.0 400.0 414.0 410.0 413.0 408.0 425.0 419.0 421.0 422.0 420.0 436.0 437.0 432.0 433.0 merge_zone_34 434.0 468.0 446.0 451.0 472.0 458.0 447.0 465.0 470.0 473.0 443.0 449.0 477.0 441.0 450.0 445.0 455.0 767.0 768.0 766.0 506.0 512.0 505.0 511.0 516.0 504.0 507.0 508.0 525.0 538.0 524.0 532.0 536.0 545.0 774.0 523.0 543.0 551.0 550.0 534.0 541.0 540.0 533.0 549.0 528.0 526.0 553.0 567.0" />
    </vehicle>
    <vehicle id="vehicle122" type="vehicle_passenger" depart="85.40">
        <route edges="679.0 693.0 677.0 705.0 689.0 680.0 702.0 682.0 717.0 863.0 723.0 859.0 856.0 858.0 724.0 718.0 734.0" />
    </vehicle>
    <vehicle id="vehicle136" type="vehicle_passenger" depart="95.20">
        <route edges="407.0 403.0 401.0 400.0 414.0 410.0 413.0 408.0 425.0 419.0 421.0 422.0 420.0 436.0 437.0 432.0 433.0 merge_zone_34 434.0 468.0 446.0 451.0 472.0 458.0 447.0 465.0 470.0 473.0 443.0 449.0 477.0 441.0 450.0 445.0 455.0 767.0 768.0 766.0 506.0 512.0 505.0 511.0 516.0 513.0 520.0" />
    </vehicle>
    <vehicle id="vehicle138" type="vehicle_passenger" depart="96.60">
        <route edges="356.0 360.0 merge_zone_27 355.0 366.0 371.0 363.0 369.0 361.0 373.0 488.0 374.0 379.0 375.0 384.0 382.0 387.0 390.0 392.0 397.0 395.0 398.0 399.0 403.0 401.0 400.0 414.0 410.0 413.0 408.0 425.0 419.0 421.0 422.0 420.0 436.0 437.0 432.0 433.0 merge_zone_34 434.0 468.0 446.0 451.0 472.0 458.0 447.0 465.0 470.0 473.0 443.0 449.0 477.0 441.0 450.0 445.0 455.0 767.0 768.0 766.0 506.0 512.0 505.0 511.0 516.0 504.0 507.0 508.0 525.0 538.0 524.0 532.0 536.0 545.0 774.0 523.0 543.0 551.0 550.0 534.0 541.0 540.0 533.0 549.0 528.0 526.0 553.0 566.0 568.0 577.0 564.0 580.0 561.0 554.0 573.0 559.0 574.0 557.0 563.0 562.0 560.0 592.0 609.0 601.0 594.0 613.0 614.0 597.0 587.0 604.0 589.0 584.0 606.0 603.0 585.0 612.0 599.0 596.0 607.0 583.0 640.0 630.0 641.0 merge_zone_48 638.0 635.0 632.0 629.0 631.0 625.0 643.0 647.0" />
    </vehicle>
    <vehicle id="vehicle141" type="vehicle_passenger" depart="98.70">
        <route edges="839.0 841.0 merge_zone_57 840.0 817.0" />
    </vehicle>
    <vehicle id="vehicle143" type="vehicle_passenger" depart="100.10">
        <route edges="194.0 172.0 merge_zone_12 174.0 176.0 178.0 182.0 191.0 merge_zone_13 183.0 204.0 205.0 202.0 201.0 212.0 208.0 215.0 213.0 224.0 221.0 223.0 222.0 229.0 merge_zone_17 228.0 502.0 501.0 480.0 331.0 323.0 324.0 328.0 325.0 334.0 332.0 336.0 merge_zone_25 337.0 340.0 344.0 343.0 346.0 342.0 351.0 352.0 353.0 merge_zone_27 355.0 366.0 371.0 363.0 369.0 361.0 373.0 488.0 374.0 379.0 375.0 384.0 382.0 387.0 390.0 392.0 397.0 395.0 398.0 399.0 403.0 401.0 400.0 414.0 410.0 413.0 408.0 425.0 419.0 421.0 422.0 420.0 436.0 437.0 432.0 433.0 merge_zone_34 434.0 468.0 446.0 451.0 472.0 458.0 447.0 465.0 470.0 473.0 443.0 449.0 477.0 441.0 450.0 445.0 455.0 767.0 768.0 766.0 506.0 512.0 505.0 511.0 516.0 504.0 507.0 508.0 525.0 538.0 524.0 532.0 536.0 545.0 774.0 523.0 543.0 551.0 550.0 534.0 541.0 540.0 533.0 549.0 528.0 526.0 553.0 566.0 568.0 577.0 564.0 580.0 561.0 554.0 573.0 559.0 574.0 557.0 563.0 562.0 560.0 592.0 609.0 601.0 594.0 613.0 614.0 597.0 587.0 604.0 589.0 584.0 606.0 603.0 585.0 612.0 599.0 596.0 607.0 583.0 640.0 630.0 641.0 merge_zone_48 638.0 635.0 632.0 629.0 631.0 625.0 626.0 633.0 655.0 654.0 649.0 652.0 661.0 651.0 653.0 866.0 867.0 865.0 873.0 870.0 876.0 875.0 889.0 merge_zone_60 888.0 883.0 881.0 887.0 665.0 673.0 672.0 675.0 663.0 664.0 688.0 699.0 695.0 701.0 708.0 709.0 690.0 692.0 694.0 678.0 697.0 698.0 687.0 696.0 710.0 683.0 703.0" />
    </vehicle>
    <vehicle id="vehicle152" type="vehicle_passenger" depart="106.40">
        <route edges="816.0 815.0 769.0 819.0 820.0 812.0 811.0 137.0 138.0 235.0 merge_zone_61 904.0 905.0 809.0 135.0 136.0 139.0 134.0 144.0 143.0 142.0 789.0 833.0 834.0 829.0 merge_zone_62 907.0 793.0 141.0 140.0 790.0 791.0 158.0 164.0 162.0 153.0 166.0 149.0 155.0 154.0 167.0 157.0 150.0 161.0 165.0 152.0 160.0 171.0 195.0 184.0 merge_zone_14 193.0 196.0 192.0 177.0 181.0 merge_zone_12 174.0 176.0 178.0 182.0 191.0 merge_zone_13 183.0 204.0 205.0 202.0 201.0 212.0 208.0 215.0 213.0 224.0 221.0 223.0 222.0 229.0 merge_zone_17 228.0 502.0 501.0 480.0 331.0 330.0" />
    </vehicle>
    <vehicle id="vehicle162" type="vehicle_passenger" depart="113.40">
        <route edges="32.0 38.0 27.0 76.0 merge_zone_18 232.0 63.0 68.0 58.0 73.0 66.0 64.0 72.0 60.0 65.0 53.0 71.0 846.0 merge_zone_5 57.0 59.0 850.0 853.0 56.0 67.0" />
    </vehicle>
    <vehicle id="vehicle164" type="vehicle_passenger" depart="114.80">
        <route edges="194.0 172.0 merge_zone_12 174.0 176.0 178.0 182.0 191.0 merge_zone_13 183.0 204.0 205.0 202.0 201.0 212.0 208.0 215.0 213.0 224.0 221.0 223.0 222.0 229.0 merge_zone_17 228.0 502.0 501.0 480.0 331.0 323.0 324.0 328.0 325.0 334.0 332.0 336.0 merge_zone_25 337.0 340.0 344.0 343.0 346.0 342.0 351.0 352.0 353.0 merge_zone_27 355.0 366.0 371.0 363.0 369.0 361.0 373.0 488.0 374.0 379.0 375.0 384.0 382.0 387.0 390.0 392.0 397.0 395.0 398.0 399.0 403.0 401.0 400.0 414.0 410.0 413.0 408.0 425.0 419.0 421.0 422.0 420.0 436.0 437.0 432.0 433.0 merge_zone_34 434.0 468.0 446.0 451.0 472.0 458.0 447.0 465.0 470.0 473.0 443.0 449.0 477.0 441.0 450.0 445.0 455.0 767.0 768.0 766.0 506.0 512.0 505.0 511.0 516.0 504.0 507.0 508.0 525.0 538.0 524.0 532.0 536.0 545.0 774.0 523.0 543.0 551.0 550.0 534.0 541.0 540.0 533.0 549.0 528.0 526.0 553.0 566.0 568.0 577.0 564.0 580.0 561.0 554.0 573.0 559.0 574.0 557.0 563.0 562.0 560.0 592.0 609.0 601.0 594.0 613.0 614.0 597.0 587.0 604.0 589.0 584.0 606.0 617.0" />
    </vehicle>
    <vehicle id="vehicle165" type="vehicle_passenger" depart="115.50">
        <route edges="190.0 185.0 merge_zone_14 193.0 196.0 192.0 177.0 181.0 merge_zone_12 174.0 176.0 178.0 182.0 191.0 merge_zone_13 183.0 204.0 205.0 202.0 201.0 212.0 208.0 215.0 213.0 224.0 221.0 223.0 222.0 229.0 merge_zone_17 228.0 502.0 501.0 480.0 331.0 323.0 324.0 328.0 325.0 334.0 332.0 336.0 merge_zone_25 337.0 340.0 344.0 343.0 346.0 342.0 351.0 352.0 353.0 merge_zone_27 355.0 366.0 371.0 363.0 369.0 361.0 373.0 488.0 374.0 379.0 375.0 384.0 382.0 387.0 390.0 392.0 397.0 395.0 398.0 399.0 403.0 401.0 400.0 414.0 410.0 413.0 408.0 425.0 419.0 421.0 422.0 420.0 436.0 437.0 432.0 433.0 merge_zone_34 434.0 468.0 446.0 451.0 472.0 458.0 447.0 465.0 470.0 473.0 443.0 449.0 477.0 441.0 450.0 445.0 455.0 767.0 768.0 766.0 506.0 512.0 505.0 511.0 516.0 504.0 507.0 508.0 525.0 538.0 524.0 532.0 536.0 545.0 774.0 523.0 543.0 551.0 550.0 534.0 541.0 540.0 533.0 549.0 528.0 526.0 553.0 566.0 568.0 577.0 564.0 580.0 561.0 554.0 573.0 559.0 574.0 557.0 563.0 562.0 560.0 592.0 609.0 601.0 594.0 613.0 614.0 597.0 587.0 604.0 589.0 584.0 606.0 603.0 585.0 612.0 599.0 596.0 607.0 583.0 640.0 630.0 641.0 merge_zone_48 638.0 635.0 632.0 629.0 631.0 625.0 626.0 633.0 655.0 654.0 649.0 652.0 661.0 651.0 653.0 866.0 867.0 865.0 873.0 870.0 876.0 875.0 889.0 merge_zone_60 888.0 883.0 881.0 887.0 665.0 673.0 672.0 675.0 663.0 664.0 688.0 699.0 695.0 701.0 708.0 709.0 690.0 692.0 694.0 678.0 697.0 698.0 687.0 696.0 710.0 683.0 706.0" />
    </vehicle>
    <vehicle id="vehicle168" type="vehicle_passenger" depart="117.60">
        <route edges="190.0 185.0 merge_zone_14 193.0 196.0 192.0 177.0 181.0 merge_zone_12 174.0 176.0 178.0 182.0 191.0 merge_zone_13 183.0 204.0 205.0 202.0 201.0 212.0 208.0 215.0 213.0 224.0 221.0 223.0 222.0 229.0 merge_zone_17 228.0 502.0 501.0 480.0 331.0 323.0 324.0 328.0 325.0 334.0 332.0 336.0 merge_zone_25 337.0 340.0 344.0 343.0 346.0 342.0 351.0 352.0 353.0 merge_zone_27 355.0 366.0 371.0 363.0 369.0 361.0 373.0 488.0 374.0 379.0 375.0 384.0 382.0 387.0 390.0 392.0 397.0 395.0 398.0 399.0 403.0 401.0 400.0 414.0 410.0 413.0 408.0 425.0 419.0 421.0 422.0 420.0 436.0 437.0 438.0" />
    </vehicle>
    <vehicle id="vehicle182" type="vehicle_passenger" depart="127.40">
        <route edges="608.0 587.0 604.0 589.0 584.0 606.0 603.0 585.0 612.0 599.0 596.0 607.0 583.0 640.0 630.0 641.0 merge_zone_48 638.0 635.0 632.0 629.0 631.0 625.0 626.0 633.0 655.0 654.0 649.0 652.0 661.0 651.0 653.0 866.0 867.0 865.0 873.0 870.0 876.0 875.0 889.0 merge_zone_60 888.0 883.0 881.0 887.0 665.0 673.0 672.0 675.0 663.0 664.0 688.0 699.0 695.0 701.0 708.0 709.0 690.0 692.0 694.0 678.0 697.0 698.0 687.0 696.0 710.0 683.0 703.0" />
    </vehicle>
    <vehicle id="vehicle188" type="vehicle_passenger" depart="131.60">
        <route edges="169.0 158.0 164.0 162.0 153.0 166.0 149.0 155.0 154.0 167.0 157.0 150.0 161.0 165.0 152.0 160.0 171.0 195.0 184.0 merge_zone_14 193.0 196.0 192.0 177.0 181.0 merge_zone_12 174.0 176.0 178.0 182.0 191.0 merge_zone_13 183.0 204.0 205.0 202.0 201.0 212.0 208.0 215.0 213.0 224.0 221.0 223.0 222.0 229.0 merge_zone_17 228.0 502.0 501.0 480.0 331.0 323.0 324.0 328.0 325.0 334.0 332.0 336.0 merge_zone_25 337.0 340.0 344.0 343.0 346.0 342.0 351.0 352.0 353.0 merge_zone_27 355.0 366.0 371.0 363.0 369.0 361.0 373.0 488.0 374.0 379.0 375.0 384.0 382.0 387.0 390.0 392.0 397.0 395.0 398.0 399.0 403.0 401.0 400.0 417.0 416.0" />
    </vehicle>
    <vehicle id="vehicle197" type="vehicle_passenger" depart="137.90">
        <route edges="345.0 343.0 346.0 342.0 351.0 352.0 353.0 merge_zone_27 355.0 366.0 371.0 363.0 369.0 361.0 373.0 488.0 374.0 379.0 375.0 384.0 382.0 387.0 390.0 392.0 397.0 395.0 398.0 399.0 403.0 401.0 400.0 414.0 410.0 413.0 408.0 425.0 419.0 421.0 422.0 420.0 436.0 437.0 432.0 433.0 merge_zone_34 434.0 468.0 446.0 451.0 472.0 458.0 447.0 465.0 470.0 473.0 443.0 449.0 477.0 441.0 450.0 445.0 455.0 767.0 768.0 766.0 506.0 512.0 505.0 511.0 516.0 504.0 507.0 508.0 525.0 538.0 524.0 532.0 536.0 545.0 774.0 523.0 543.0 551.0 550.0 534.0 541.0 540.0 533.0 549.0 528.0 526.0 553.0 566.0 568.0 577.0 564.0 580.0 561.0 554.0 573.0 559.0 574.0 557.0 563.0 562.0 560.0 592.0 609.0 601.0 594.0 613.0 614.0 597.0 587.0 604.0 589.0 584.0 606.0 603.0 585.0 612.0 599.0 596.0 607.0 583.0 640.0 630.0 641.0 merge_zone_48 638.0 635.0 632.0 629.0 631.0 625.0 626.0 633.0 655.0 654.0 649.0 652.0 661.0 651.0 653.0 866.0 867.0 865.0 873.0 870.0 876.0 875.0 889.0 merge_zone_60 888.0 883.0 881.0 887.0 665.0 673.0 672.0 675.0 663.0 664.0 688.0 699.0 695.0 701.0 708.0 709.0 690.0 692.0 694.0 678.0 697.0 698.0 687.0 696.0 710.0 683.0 703.0" />
    </vehicle>
    <vehicle id="vehicle200" type="vehicle_passenger" depart="140.00">
        <route edges="464.0 451.0 472.0 458.0 447.0 465.0 470.0 473.0 443.0 449.0 477.0 441.0 450.0 445.0 455.0 767.0 768.0 766.0 506.0 512.0 505.0 511.0 516.0 504.0 507.0 508.0 525.0 538.0 524.0 532.0 536.0 545.0 774.0 523.0 543.0 551.0 550.0 534.0 541.0 540.0 533.0 549.0 528.0 526.0 553.0 566.0 568.0 577.0 564.0 580.0 561.0 554.0 573.0 559.0 574.0 557.0 563.0 562.0 560.0 592.0 609.0 601.0 594.0 613.0 614.0 597.0 587.0 604.0 589.0 584.0 606.0 603.0 585.0 612.0 599.0 596.0 607.0 583.0 644.0 623.0" />
    </vehicle>
    <vehicle id="vehicle201" type="vehicle_passenger" depart="140.70">
        <route edges="736.0 730.0 863.0 723.0 859.0 856.0 858.0 724.0 718.0 729.0 726.0 716.0 715.0 719.0 721.0 722.0 746.0 745.0 747.0 merge_zone_54 740.0 744.0 742.0 748.0" />
    </vehicle>
    <vehicle id="vehicle214" type="vehicle_passenger" depart="149.80">
        <route edges="188.0 186.0 189.0 merge_zone_13 183.0 204.0 205.0 202.0 201.0 212.0 208.0 215.0 213.0 224.0 221.0 223.0 222.0 229.0 merge_zone_17 228.0 502.0 501.0 480.0 331.0 330.0" />
    </vehicle>
    <vehicle id="vehicle217" type="vehicle_passenger" depart="151.90">
        <route edges="464.0 451.0 472.0 458.0 447.0 465.0 470.0 473.0 443.0 449.0 477.0 441.0 450.0 445.0 455.0 767.0 768.0 766.0 506.0 512.0 505.0 511.0 516.0 504.0 507.0 508.0 525.0 538.0 524.0 532.0 536.0 545.0 774.0 523.0 543.0 551.0 550.0 534.0 541.0 540.0 533.0 549.0 528.0 526.0 553.0 566.0 568.0 577.0 564.0 580.0 561.0 554.0 573.0 559.0 574.0 557.0 563.0 562.0 560.0 592.0 609.0 601.0 594.0 613.0 614.0 597.0 587.0 604.0 589.0 584.0 606.0 603.0 585.0 612.0 599.0 596.0 607.0 583.0 640.0 630.0 641.0 merge_zone_48 638.0 635.0 632.0 629.0 631.0 625.0 626.0 633.0 655.0 654.0 649.0 652.0 661.0 651.0 653.0 866.0 867.0 865.0 873.0 870.0 876.0 875.0 889.0 merge_zone_60 888.0 883.0 881.0 887.0 665.0 673.0 672.0 675.0 663.0 664.0 688.0 699.0 695.0 701.0 708.0 709.0 690.0 692.0 694.0 678.0 697.0 698.0 687.0 696.0 710.0 683.0 706.0" />
    </vehicle>
    <vehicle id="vehicle231" type="vehicle_passenger" depart="161.70">
        <route edges="646.0 629.0 631.0 625.0 643.0 647.0" />
    </vehicle>
    <vehicle id="vehicle238" type="vehicle_passenger" depart="166.60">
        <route edges="478.0 445.0 455.0 767.0 768.0 766.0 506.0 512.0 505.0 511.0 516.0 504.0 507.0 508.0 525.0 538.0 524.0 532.0 536.0 545.0 774.0 523.0 543.0 551.0 550.0 534.0 541.0 540.0 533.0 549.0 528.0 526.0 553.0 566.0 568.0 577.0 564.0 580.0 561.0 554.0 573.0 559.0 574.0 557.0 563.0 562.0 560.0 592.0 609.0 601.0 594.0 613.0 614.0 597.0 587.0 604.0 589.0 584.0 606.0 603.0 585.0 612.0 599.0 596.0 607.0 583.0 640.0 630.0 641.0 merge_zone_48 638.0 635.0 632.0 629.0 631.0 625.0 626.0 633.0 655.0 654.0 649.0 652.0 661.0 651.0 653.0 866.0 867.0 865.0 873.0 870.0 876.0 879.0 659.0" />
    </vehicle>
    <vehicle id="vehicle241" type="vehicle_passenger" depart="168.70">
        <route edges="576.0 559.0 574.0 557.0 563.0 562.0 560.0 592.0 609.0 601.0 594.0 613.0 614.0 597.0 587.0 604.0 589.0 584.0 606.0 603.0 585.0 612.0 599.0 596.0 607.0 583.0 640.0 630.0 641.0 merge_zone_48 638.0 635.0 632.0 629.0 631.0 625.0 626.0 633.0 655.0 654.0 649.0 652.0 661.0 651.0 653.0 866.0 867.0 865.0 873.0 870.0 876.0 879.0 659.0" />
    </vehicle>
    <vehicle id="vehicle250" type="vehicle_passenger" depart="175.00">
        <route edges="188.0 186.0 189.0 merge_zone_13 183.0 204.0 205.0 202.0 201.0 212.0 208.0 215.0 213.0 224.0 221.0 223.0 222.0 229.0 merge_zone_17 228.0 502.0 501.0 480.0 331.0 323.0 324.0 328.0 325.0 334.0 332.0 336.0 merge_zone_25 337.0 340.0 344.0 343.0 346.0 342.0 357.0 358.0" />
    </vehicle>
    <vehicle id="vehicle251" type="vehicle_passenger" depart="175.70">
        <route edges="608.0 587.0 604.0 589.0 584.0 606.0 603.0 585.0 612.0 599.0 596.0 607.0 583.0 640.0 630.0 641.0 merge_zone_48 638.0 635.0 632.0 629.0 631.0 625.0 626.0 633.0 655.0 654.0 649.0 652.0 661.0 651.0 653.0 866.0 867.0 865.0 873.0 870.0 876.0 875.0 889.0 merge_zone_60 888.0 883.0 881.0 887.0 665.0 673.0 672.0 675.0 663.0 664.0 688.0 699.0 695.0 701.0 708.0 709.0 690.0 692.0 694.0 678.0 697.0 698.0 687.0 696.0 710.0 683.0 703.0" />
    </vehicle>
    <vehicle id="vehicle254" type="vehicle_passenger" depart="177.80">
        <route edges="194.0 172.0 merge_zone_12 174.0 176.0 178.0 182.0 191.0 merge_zone_13 183.0 204.0 205.0 202.0 201.0 212.0 208.0 215.0 213.0 224.0 221.0 223.0 222.0 229.0 merge_zone_17 228.0 502.0 501.0 480.0 331.0 323.0 324.0 328.0 325.0 334.0 332.0 336.0 merge_zone_25 337.0 340.0 344.0 343.0 346.0 342.0 351.0 352.0 353.0 merge_zone_27 355.0 366.0 371.0 363.0 369.0 361.0 373.0 488.0 374.0 379.0 375.0 384.0 382.0 387.0 390.0 392.0 397.0 395.0 404.0 405.0" />
    </vehicle>
    <vehicle id="vehicle256" type="vehicle_passenger" depart="179.20">
        <route edges="816.0 815.0 769.0 819.0 820.0 812.0 811.0 137.0 138.0 235.0 merge_zone_61 904.0 905.0 809.0 135.0 136.0 139.0 134.0 144.0 143.0 142.0 789.0 833.0 834.0 829.0 merge_zone_62 907.0 793.0 141.0 140.0 790.0 791.0 158.0 164.0 162.0 153.0 166.0 149.0 155.0 154.0 167.0 157.0 150.0 161.0 165.0 152.0 160.0 171.0 195.0 184.0 merge_zone_14 193.0 196.0 192.0 177.0 181.0 merge_zone_12 174.0 176.0 178.0 182.0 191.0 merge_zone_13 183.0 204.0 205.0 202.0 201.0 212.0 208.0 215.0 213.0 224.0 221.0 223.0 222.0 229.0 merge_zone_17 228.0 502.0 501.0 480.0 331.0 323.0 324.0 328.0 325.0 334.0 332.0 336.0 merge_zone_25 337.0 340.0 344.0 343.0 346.0 342.0 351.0 352.0 353.0 merge_zone_27 355.0 366.0 371.0 363.0 369.0 361.0 373.0 488.0 374.0 379.0 375.0 384.0 382.0 387.0 390.0 392.0 397.0 395.0 398.0 399.0 403.0 401.0 400.0 414.0 410.0 413.0 408.0 425.0 419.0 421.0 422.0 420.0 436.0 437.0 432.0 433.0 merge_zone_34 434.0 468.0 446.0 451.0 472.0 458.0 447.0 465.0 470.0 473.0 443.0 449.0 477.0 441.0 450.0 445.0 455.0 767.0 768.0 766.0 506.0 512.0 505.0 511.0 516.0 504.0 507.0 508.0 525.0 538.0 524.0 532.0 536.0 545.0 774.0 523.0 543.0 551.0 550.0 534.0 541.0 540.0 533.0 549.0 528.0 526.0 553.0 566.0 568.0 577.0 569.0" />
    </vehicle>
    <vehicle id="vehicle263" type="vehicle_passenger" depart="184.10">
        <route edges="749.0 merge_zone_54 740.0 744.0 742.0 748.0" />
    </vehicle>
    <vehicle id="vehicle266" type="vehicle_passenger" depart="186.20">