<?xml version='1.0' encoding='utf-8'?>
<edges>
    <edge id="325.0" from="node_325_start" to="junction_87" numLanes="3" speed="13.89" type="town" shape="702350.03,3286556.06 702346.44,3286555.35 702346.44,3286555.35 702314.70,3286549.14 702314.70,3286549.14 702287.50,3286543.78 702287.50,3286543.78 702264.18,3286539.28 702264.18,3286539.28 702225.46,3286531.70 702225.46,3286531.70 702207.78,3286528.17 702207.78,3286528.17 702187.90,3286524.25 702187.90,3286524.25 702154.90,3286517.79 702154.90,3286517.79 702126.18,3286512.16 702126.18,3286512.16 702098.20,3286506.64 702098.20,3286506.64 702073.77,3286501.85 702073.77,3286501.85 702047.62,3286496.74 702047.62,3286496.74 702024.33,3286492.14 702024.33,3286492.14 702002.61,3286487.87 702002.61,3286487.87 701980.77,3286483.61 701980.77,3286483.61 701958.20,3286479.15 701958.20,3286479.15 701933.07,3286474.19 701933.07,3286474.19 701913.42,3286470.29 701913.42,3286470.29 701894.90,3286466.65 701894.90,3286466.65 701876.23,3286462.96 701876.23,3286462.96 701854.16,3286458.59 701854.16,3286458.59 701832.41,3286454.31 701832.41,3286454.31 701806.78,3286449.27 701806.78,3286449.27 701785.95,3286445.21 701785.95,3286445.21 701763.05,3286440.68 701763.05,3286440.68 701740.81,3286436.30 701740.81,3286436.30 701721.41,3286432.51 701721.41,3286432.51 701697.55,3286427.84 701697.55,3286427.84 701678.19,3286424.06 701678.19,3286424.06 701656.54,3286419.82 701656.54,3286419.82 701633.65,3286415.35 701633.65,3286415.35 701610.33,3286410.77 701610.33,3286410.77 701584.69,3286405.70 701584.69,3286405.70 701563.02,3286401.40 701563.02,3286401.40 701534.16,3286395.63 701534.16,3286395.63 701510.96,3286391.03 701510.96,3286391.03 701485.95,3286386.20 701485.95,3286386.20 701462.37,3286381.79 701462.37,3286381.79 701436.85,3286377.18 701436.85,3286377.18 701408.20,3286372.16 701408.20,3286372.16 701379.32,3286367.36 701379.32,3286367.36 701358.32,3286364.03 701358.32,3286364.03 701337.57,3286360.80 701337.57,3286360.80 701324.61,3286358.91 701324.61,3286358.91 701312.87,3286357.23 701312.87,3286357.23 701297.19,3286355.04 701297.19,3286355.04 701279.43,3286352.71 701279.43,3286352.71 701260.23,3286350.27 701260.23,3286350.27 701244.01,3286348.24 701244.01,3286348.24 701230.55,3286346.58 701230.55,3286346.58 701215.95,3286344.92 701215.95,3286344.92 701200.24,3286343.25 701200.24,3286343.25 701184.84,3286341.68 701184.84,3286341.68 701167.97,3286340.04 701167.97,3286340.04 701148.03,3286338.19 701148.03,3286338.19 701131.72,3286336.77 701131.72,3286336.77 701117.03,3286335.47 701117.03,3286335.47 701101.27,3286334.12 701101.27,3286334.12 701083.90,3286332.63 701083.90,3286332.63 701060.59,3286330.67 701060.59,3286330.67 701044.44,3286329.30 701044.44,3286329.30 701023.36,3286327.55 701023.36,3286327.55 701003.88,3286325.88 701003.88,3286325.88 700984.61,3286324.26 700984.61,3286324.26 700964.10,3286322.49 700964.10,3286322.49 700941.79,3286320.55 700941.79,3286320.55 700921.54,3286318.84 700921.54,3286318.84 700903.09,3286317.26 700903.09,3286317.26 700882.38,3286315.53 700882.38,3286315.53 700860.64,3286313.73 700860.64,3286313.73 700839.65,3286311.99 700839.65,3286311.99 700817.84,3286310.15 700817.84,3286310.15 700792.86,3286308.00 700792.86,3286308.00 700769.56,3286306.07 700769.56,3286306.07 700741.59,3286303.68 700741.59,3286303.68 700714.85,3286301.43 700714.85,3286301.43 700690.28,3286299.36 700690.28,3286299.36 700663.82,3286297.14 700663.82,3286297.14 700641.71,3286295.27 700641.71,3286295.27 700614.65,3286293.02 700614.65,3286293.02 700590.57,3286291.05 700590.57,3286291.05 700573.74,3286289.61 700573.74,3286289.61 700558.42,3286288.29 700558.42,3286288.29 700539.51,3286286.68 700539.51,3286286.68 700520.91,3286285.04 700520.91,3286285.04 700501.30,3286283.40 700501.30,3286283.40 700484.66,3286281.99 700484.66,3286281.99 700468.49,3286280.62 700468.49,3286280.62 700444.03,3286278.58 700444.03,3286278.58 700422.84,3286276.79 700422.84,3286276.79 700407.82,3286275.55 700407.82,3286275.55 700394.67,3286274.43 700394.67,3286274.43 700378.10,3286273.09 700378.10,3286273.09 700361.04,3286271.70 700361.04,3286271.70 700341.02,3286269.97 700341.02,3286269.97 700322.71,3286268.44 700322.71,3286268.44 700304.59,3286266.92 700304.59,3286266.92 700287.72,3286265.49 700287.72,3286265.49 700265.34,3286263.60 700265.34,3286263.60 700242.06,3286261.64 700242.06,3286261.64 700217.54,3286259.56 700217.54,3286259.56 700200.70,3286258.13 700200.70,3286258.13 700184.75,3286256.76 700184.75,3286256.76 700161.32,3286254.77 700161.32,3286254.77 700142.41,3286253.17 700142.41,3286253.17 700127.96,3286251.96 700127.96,3286251.96 700110.69,3286250.47 700110.69,3286250.47 700096.57,3286249.28 700096.57,3286249.28 700075.21,3286247.51 700075.21,3286247.51 700048.98,3286245.29 700048.98,3286245.29 700029.60,3286243.68 700029.60,3286243.68 700002.83,3286241.44 700002.83,3286241.44 699977.16,3286239.31 699977.16,3286239.31 699964.64,3286238.31 699964.64,3286238.31 699955.67,3286237.46 699955.67,3286237.46 699912.34,3286233.89 699912.34,3286233.89 699865.39,3286229.99 699865.39,3286229.99 699813.43,3286225.58 699813.43,3286225.58 699752.93,3286220.50 699752.93,3286220.50 699697.94,3286215.86 699697.94,3286215.86 699679.53,3286214.30 699679.53,3286214.30 699651.58,3286211.96 699651.58,3286211.96 699620.39,3286209.32 699620.39,3286209.32 699588.01,3286206.67 699588.01,3286206.67 699555.23,3286203.85 699555.23,3286203.85 699508.50,3286199.90 699508.50,3286199.90 699484.08,3286197.80 699484.08,3286197.80 699468.15,3286196.49 699468.15,3286196.49 699419.23,3286192.49 699419.23,3286192.49 699365.98,3286187.95 699365.98,3286187.95 699315.51,3286183.60 699315.51,3286183.60 699294.36,3286181.79 699294.36,3286181.79 699266.01,3286179.39 699266.01,3286179.39 699237.17,3286176.93 699237.17,3286176.93 699202.28,3286173.95 699202.28,3286173.95 699181.20,3286172.17 699181.20,3286172.17 699139.05,3286168.58 699139.05,3286168.58 699107.56,3286165.93 699107.56,3286165.93 699060.53,3286161.89 699060.53,3286161.89 699023.31,3286158.80 699023.31,3286158.80 698976.16,3286154.96 698976.16,3286154.96 698904.22,3286148.94 698904.22,3286148.94 698849.86,3286144.27 698849.86,3286144.27 698836.97,3286143.23 698836.97,3286143.23 698814.65,3286141.31 698814.65,3286141.31 698785.87,3286138.84 698785.87,3286138.84 698746.18,3286135.40 698746.18,3286135.40 698710.22,3286132.34 698710.22,3286132.34 698651.86,3286127.33 698651.86,3286127.33 698599.35,3286122.88 698599.35,3286122.88 698529.35,3286117.00 698529.35,3286117.00 698462.33,3286111.43 698462.33,3286111.43 698359.88,3286102.77 698359.88,3286102.77 698275.59,3286095.65 698275.59,3286095.65 698264.30,3286094.70 698264.30,3286094.70 698239.75,3286092.66 698239.75,3286092.66 698215.50,3286090.58 698215.50,3286090.58 698190.89,3286088.53 698190.89,3286088.53 698166.78,3286086.49 698166.78,3286086.49 698146.26,3286084.72 698146.26,3286084.72 698105.86,3286081.29 698105.86,3286081.29 698023.04,3286074.23 698023.04,3286074.23 697977.19,3286070.31 697977.19,3286070.31 697945.47,3286067.76 697945.47,3286067.76 697904.64,3286064.38 697904.64,3286064.38 697870.34,3286062.01 697870.34,3286062.01 697853.42,3286061.03 697853.42,3286061.03 697819.98,3286059.60 697819.98,3286059.60 697789.40,3286059.10 697789.40,3286059.10 697762.14,3286058.79 697762.14,3286058.79 697742.46,3286058.87 697742.46,3286058.87 697712.63,3286059.53 697712.63,3286059.53 697703.47,3286059.88 697703.47,3286059.88 697683.80,3286060.64 697683.80,3286060.64 697666.96,3286061.50 697666.96,3286061.50 697647.29,3286062.76 697647.29,3286062.76 697625.43,3286064.38 697625.43,3286064.38 697602.88,3286066.23 697602.88,3286066.23 697580.02,3286068.44 697580.02,3286068.44 697552.30,3286071.15 697552.30,3286071.15 697526.94,3286073.77 697526.94,3286073.77 697500.34,3286076.60 697500.34,3286076.60 697479.49,3286078.81 697479.49,3286078.81 697444.39,3286082.63 697444.39,3286082.63 697434.88,3286083.67 697434.88,3286083.67 697423.44,3286084.86 697423.44,3286084.86 697412.62,3286086.02 697412.62,3286086.02 697396.40,3286087.74 697396.40,3286087.74 697382.95,3286089.16 697382.95,3286089.16 697371.30,3286090.39 697371.30,3286090.39 697331.38,3286094.57 697331.38,3286094.57 697311.25,3286096.70 697311.25,3286096.70 697284.32,3286099.58 697284.32,3286099.58 697263.13,3286101.79 697263.13,3286101.79 697247.86,3286103.40 697247.86,3286103.40 697225.13,3286105.83 697225.13,3286105.83 697196.97,3286108.74 697196.97,3286108.74 697170.64,3286111.57 697170.64,3286111.57 697147.55,3286113.95 697147.55,3286113.95 697125.63,3286116.39 697125.63,3286116.39 697092.54,3286119.87 697092.54,3286119.87 697066.54,3286122.59 697066.54,3286122.59 697034.74,3286125.92 697034.74,3286125.92 697004.97,3286129.12 697004.97,3286129.12 696981.39,3286131.61 696981.39,3286131.61 696944.18,3286135.60 696944.18,3286135.60 696909.73,3286139.25 696909.73,3286139.25 696887.66,3286141.56 696887.66,3286141.56 696861.29,3286144.36 696861.29,3286144.36 696835.87,3286147.08 696835.87,3286147.08 696797.86,3286151.10 696797.86,3286151.10 696761.69,3286155.00 696761.69,3286155.00 696736.94,3286157.66 696736.94,3286157.66 696692.99,3286162.29 696692.99,3286162.29 696659.98,3286165.80 696659.98,3286165.80 696621.06,3286169.91 696621.06,3286169.91 696605.79,3286171.59 696605.79,3286171.59 696577.15,3286174.58 696577.15,3286174.58 696555.21,3286176.88 696555.21,3286176.88 696534.11,3286179.12 696534.11,3286179.12 696484.86,3286184.31 696484.86,3286184.31 696464.92,3286186.48 696464.92,3286186.48 696423.68,3286190.82 696423.68,3286190.82 696404.71,3286192.84 696404.71,3286192.84 696381.32,3286195.28 696381.32,3286195.28 696359.63,3286197.50 696359.63,3286197.50 696329.15,3286200.68 696329.15,3286200.68 696307.42,3286203.04 696307.42,3286203.04 696282.67,3286205.65 696282.67,3286205.65 696259.48,3286208.17 696259.48,3286208.17 696111.75,3286223.88 696111.75,3286223.88 696083.25,3286226.86 696083.25,3286226.86 696057.84,3286229.60 696057.84,3286229.60 695945.64,3286241.42 695945.64,3286241.42 695918.52,3286244.29 695918.52,3286244.29 695863.90,3286250.10 695863.90,3286250.10 695847.16,3286251.90 695847.16,3286251.90 695828.61,3286253.88 695828.61,3286253.88 695795.79,3286257.28 695795.79,3286257.28 695768.29,3286260.15 695768.29,3286260.15 695728.54,3286264.33 695728.54,3286264.33 695691.21,3286268.16 695691.21,3286268.16 695650.83,3286272.04 695650.83,3286272.04 695590.95,3286276.88 695590.95,3286276.88 695572.24,3286278.12 695572.24,3286278.12 695540.81,3286279.95 695540.81,3286279.95 695486.19,3286282.60 695486.19,3286282.60 695437.56,3286284.25 695437.56,3286284.25 695392.05,3286285.01 695392.05,3286285.01 695235.90,3286285.55 695235.90,3286285.55 695197.97,3286285.55 695197.97,3286285.55 695164.82,3286285.55 695164.82,3286285.55 695128.05,3286285.56 695128.05,3286285.56 695068.84,3286285.50 695068.84,3286285.50 694974.37,3286285.62 694974.37,3286285.62 694899.37,3286285.72 694899.37,3286285.72 694816.90,3286285.73 694816.90,3286285.73 694778.56,3286285.89 694778.56,3286285.89 694703.72,3286285.91 694703.72,3286285.91 694650.78,3286285.96 694650.78,3286285.96 694592.67,3286286.03 694592.67,3286286.03 694574.65,3286286.01 694574.65,3286286.01 694465.41,3286286.13 694465.41,3286286.13 694374.70,3286286.31 694374.70,3286286.31 694317.22,3286286.33 694317.22,3286286.33 694255.72,3286286.32 694255.72,3286286.32 694158.47,3286286.44 694158.47,3286286.44 694083.52,3286286.43 694083.52,3286286.43 694070.46,3286286.45 694070.46,3286286.45 694053.93,3286286.48 694053.93,3286286.48 694043.49,3286286.47 694043.49,3286286.47 694026.68,3286286.50 694026.68,3286286.50 694012.41,3286286.49 694012.41,3286286.49 693992.71,3286286.49 693992.71,3286286.49 693965.80,3286286.49 693965.80,3286286.49 693940.11,3286286.51 693940.11,3286286.51 693912.53,3286286.56 693912.53,3286286.56 693881.95,3286286.64 693881.95,3286286.64 693841.23,3286286.62 693841.23,3286286.62 693799.34,3286286.63 693799.34,3286286.63 693754.36,3286286.69 693754.36,3286286.69 693750.17,3286286.69">
        <lane index="0" width="3.66" type="shoulder" disallow="all" />
        <lane index="1" width="3.66" />
        <lane index="2" width="3.66" />
    </edge>
    <edge id="332.0" from="node_332_start" to="node_332_end" numLanes="3" speed="13.89" type="town" shape="693660.01,3286286.78 693654.34,3286286.79 693654.34,3286286.79 693602.89,3286286.84 693602.89,3286286.84 693556.31,3286286.80 693556.31,3286286.80 693493.44,3286286.84 693493.44,3286286.84 693430.90,3286286.92 693430.90,3286286.92 693380.14,3286286.98 693380.14,3286286.98 693349.22,3286287.07 693349.22,3286287.07 693329.88,3286286.99 693329.88,3286286.99 693307.67,3286287.01 693307.67,3286287.01 693284.16,3286287.03 693284.16,3286287.03 693262.38,3286287.06 693262.38,3286287.06 693244.32,3286287.10 693244.32,3286287.10 693228.01,3286287.10 693228.01,3286287.10 693211.49,3286287.10 693211.49,3286287.10 693195.33,3286287.10 693195.33,3286287.10 693182.74,3286287.11 693182.74,3286287.11 693167.44,3286287.13 693167.44,3286287.13 693152.65,3286287.14 693152.65,3286287.14 693133.49,3286287.16 693133.49,3286287.16 693114.05,3286287.16 693114.05,3286287.16 693093.20,3286287.20 693093.20,3286287.20 693070.14,3286287.24 693070.14,3286287.24 693050.53,3286287.26 693050.53,3286287.26 693029.36,3286287.27 693029.36,3286287.27 693009.47,3286287.31 693009.47,3286287.31 692986.18,3286287.35 692986.18,3286287.35 692965.60,3286287.35 692965.60,3286287.35 692947.50,3286287.37">
        <lane index="0" width="3.66" type="shoulder" disallow="all" />
        <lane index="1" width="3.66" />
        <lane index="2" width="3.66" />
    </edge>
    <edge id="333.0" from="node_333_start" to="node_333_end" numLanes="1" speed="13.89" type="town" shape="693660.09,3286296.75 693637.39,3286298.76 693637.39,3286298.76 693608.65,3286301.36 693608.65,3286301.36 693587.25,3286303.56 693587.25,3286303.56 693567.33,3286305.77 693567.33,3286305.77 693540.46,3286308.94 693540.46,3286308.94 693520.82,3286311.76 693520.82,3286311.76 693496.78,3286316.07 693496.78,3286316.07 693466.68,3286321.89 693466.68,3286321.89 693447.20,3286325.63">
        <lane index="0" width="3.66" />
    </edge>
    <edge id="334.0" from="junction_87" to="node_332_start" numLanes="2" speed="13.89" type="town" shape="693694.05,3286286.74 693660.01,3286286.78">
        <lane index="0" width="3.66" />
        <lane index="1" width="3.66" />
    </edge>
    <edge id="335.0" from="junction_87" to="node_333_start" numLanes="1" speed="13.89" type="town" shape="693694.00,3286293.84 693675.41,3286295.44 693675.41,3286295.44 693660.09,3286296.75">
        <lane index="0" width="3.66" />
    </edge>
    <edge id="336.0" from="node_332_end" to="j_merge_start_25" numLanes="2" speed="13.89" type="town" shape="692947.50,3286287.37 692933.04,3286287.41 692933.04,3286287.41 692917.55,3286287.47 692917.55,3286287.47 692902.53,3286287.50 692902.53,3286287.50 692885.82,3286287.60 692885.82,3286287.60 692874.20,3286287.74">
        <lane index="0" width="3.66" />
        <lane index="1" width="3.66" />
    </edge>