<?xml version="1.0" encoding="UTF-8"?>

<!-- generated on 2025-10-19 17:33:42 by Eclipse SUMO netconvert Version 1.23.1
<netconvertConfiguration xmlns:xsi="http://www.w3.org/2001/XMLSchema-instance" xsi:noNamespaceSchemaLocation="http://sumo.dlr.de/xsd/netconvertConfiguration.xsd">

    <input>
        <node-files value="/home/sdai/harry/TeraSim/jupiter/wb/jupiter_wb_tiles/tile_0099/tile_0099.nod.xml"/>
        <edge-files value="/home/sdai/harry/TeraSim/jupiter/wb/jupiter_wb_tiles/tile_0099/tile_0099.edg.xml"/>
        <connection-files value="/home/sdai/harry/TeraSim/jupiter/wb/jupiter_wb_tiles/tile_0099/tile_0099.con.xml"/>
    </input>

    <output>
        <output-file value="/home/sdai/harry/TeraSim/jupiter/wb/jupiter_wb_tiles/tile_0099/tile_0099.net.xml"/>
        <output.street-names value="true"/>
        <output.original-names value="true"/>
    </output>

    <processing>
        <geometry.remove value="false"/>
        <geometry.min-dist value="0.5"/>
        <edges.join value="false"/>
    </processing>

    <junctions>
        <no-internal-links value="false"/>
        <no-turnarounds value="true"/>
        <junctions.join value="true"/>
        <junctions.join-dist value="10"/>
        <junctions.corner-detail value="5"/>
        <junctions.internal-link-detail value="5"/>
        <junctions.limit-turn-speed value="5.5"/>
        <rectangular-lane-cut value="true"/>
        <check-lane-foes.all value="true"/>
    </junctions>

</netconvertConfiguration>
-->

<net version="1.20" junctionCornerDetail="5" junctionLinkDetail="5" rectangularLaneCut="true" limitTurnSpeed="5.50" checkLaneFoesAll="1" xmlns:xsi="http://www.w3.org/2001/XMLSchema-instance" xsi:noNamespaceSchemaLocation="http://sumo.dlr.de/xsd/net_file.xsd">

    <location netOffset="-684121.90,-3286058.79" convBoundary="0.00,0.00,18228.13,867.93" origBoundary="0.00,0.00,702350.03,3286926.72" projParameter="!"/>

    <edge id=":j_merge_end_25_0" function="internal">
        <lane id=":j_merge_end_25_0_0" index="0" speed="13.89" length="41.07" width="3.66" shape="8620.51,244.37 8609.85,244.10 8599.85,242.49 8589.87,240.99 8579.23,241.03"/>
        <lane id=":j_merge_end_25_0_1" index="1" speed="13.89" length="41.07" width="3.66" shape="8620.23,240.72 8579.65,244.66"/>
        <lane id=":j_merge_end_25_0_2" index="2" speed="13.89" length="41.07" width="3.66" shape="8619.95,237.07 8579.23,241.03"/>
    </edge>
    <edge id=":j_merge_start_25_0" function="internal">
        <lane id=":j_merge_start_25_0_0" index="0" speed="13.89" length="61.74" width="3.66" shape="8752.49,237.78 8690.78,239.90"/>
    </edge>
    <edge id=":j_merge_start_25_1" function="internal">
        <lane id=":j_merge_start_25_1_0" index="0" speed="13.89" length="61.87" width="3.66" shape="8752.37,234.44 8690.59,236.24"/>
        <lane id=":j_merge_start_25_1_1" index="1" speed="13.89" length="61.87" width="3.66" shape="8752.33,230.78 8690.41,232.59"/>
    </edge>
    <edge id=":junction_87_0" function="internal">
        <lane id=":junction_87_0_0" index="0" speed="13.89" length="62.72" width="3.66" shape="9628.27,233.39 9565.68,237.44"/>
    </edge>
    <edge id=":junction_87_1" function="internal">
        <lane id=":junction_87_1_0" index="0" speed="13.89" length="62.77" width="3.66" shape="9628.27,233.39 9565.51,233.45"/>
        <lane id=":junction_87_1_1" index="1" speed="13.89" length="62.77" width="3.66" shape="9628.27,229.73 9565.51,229.79"/>
    </edge>
    <edge id=":node_332_end_0" function="internal">
        <lane id=":node_332_end_0_0" index="0" speed="13.89" length="3.00" width="3.66" shape="8827.11,234.07 8824.12,234.07"/>
        <lane id=":node_332_end_0_1" index="1" speed="13.89" length="3.00" width="3.66" shape="8827.11,230.41 8824.11,230.41"/>
    </edge>
    <edge id=":node_332_start_0" function="internal">
        <lane id=":node_332_start_0_0" index="0" speed="13.89" length="3.00" width="3.66" shape="9539.62,233.48 9536.62,233.48"/>
        <lane id=":node_332_start_0_1" index="1" speed="13.89" length="3.00" width="3.66" shape="9539.62,229.82 9536.62,229.82"/>
    </edge>
    <edge id=":node_333_start_0" function="internal">
        <lane id=":node_333_start_0_0" index="0" speed="13.89" length="0.30" width="3.66" shape="9538.50,239.77 9538.20,239.80"/>
    </edge>
    <edge id=":node_338_start_0" function="internal">
        <lane id=":node_338_start_0_0" index="0" speed="13.89" length="0.28" width="3.66" shape="8825.52,240.44 8825.25,240.42"/>
    </edge>

    <edge id="325.0" from="node_325_start" to="junction_87" priority="-1" type="town" shape="18228.13,497.27 18224.54,496.56 18192.80,490.35 18165.60,484.99 18142.28,480.49 18103.56,472.91 18085.88,469.38 18066.00,465.46 18033.00,459.00 18004.28,453.37 17976.30,447.85 17951.87,443.06 17925.72,437.95 17902.43,433.35 17880.71,429.08 17858.87,424.82 17836.30,420.36 17811.17,415.40 17791.52,411.50 17773.00,407.86 17754.33,404.17 17732.26,399.80 17710.51,395.52 17684.88,390.48 17664.05,386.42 17641.15,381.89 17618.91,377.51 17599.51,373.72 17575.65,369.05 17556.29,365.27 17534.64,361.03 17511.75,356.56 17488.43,351.98 17462.79,346.91 17441.12,342.61 17412.26,336.84 17389.06,332.24 17364.05,327.41 17340.47,323.00 17314.95,318.39 17286.30,313.37 17257.42,308.57 17236.42,305.24 17215.67,302.01 17202.71,300.12 17190.97,298.44 17175.29,296.25 17157.53,293.92 17138.33,291.48 17122.11,289.45 17108.65,287.79 17094.05,286.13 17078.34,284.46 17062.94,282.89 17046.07,281.25 17026.13,279.40 17009.82,277.98 16995.13,276.68 16979.37,275.33 16962.00,273.84 16938.69,271.88 16922.54,270.51 16901.46,268.76 16881.98,267.09 16862.71,265.47 16842.20,263.70 16819.89,261.76 16799.64,260.05 16781.19,258.47 16760.48,256.74 16738.74,254.94 16717.75,253.20 16695.94,251.36 16670.96,249.21 16647.66,247.28 16619.69,244.89 16592.95,242.64 16568.38,240.57 16541.92,238.35 16519.81,236.48 16492.75,234.23 16468.67,232.26 16451.84,230.82 16436.52,229.50 16417.61,227.89 16399.01,226.25 16379.40,224.61 16362.76,223.20 16346.59,221.83 16322.13,219.79 16300.94,218.00 16285.92,216.76 16272.77,215.64 16256.20,214.30 16239.14,212.91 16219.12,211.18 16200.81,209.65 16182.69,208.13 16165.82,206.70 16143.44,204.81 16120.16,202.85 16095.64,200.77 16078.80,199.34 16062.85,197.97 16039.42,195.98 16020.51,194.38 16006.06,193.17 15988.79,191.68 15974.67,190.49 15953.31,188.72 15927.08,186.50 15907.70,184.89 15880.93,182.65 15855.26,180.52 15842.74,179.52 15833.77,178.67 15790.44,175.10 15743.49,171.20 15691.53,166.79 15631.03,161.71 15576.04,157.07 15557.63,155.51 15529.68,153.17 15498.49,150.53 15466.11,147.88 15433.33,145.06 15386.60,141.11 15362.18,139.01 15346.25,137.70 15297.33,133.70 15244.08,129.16 15193.61,124.81 15172.46,123.00 15144.11,120.60 15115.27,118.14 15080.38,115.16 15059.30,113.38 15017.15,109.79 14985.66,107.14 14938.63,103.10 14901.41,100.01 14854.26,96.17 14782.32,90.15 14727.96,85.48 14715.07,84.44 14692.75,82.52 14663.97,80.05 14624.28,76.61 14588.32,73.55 14529.96,68.54 14477.45,64.09 14407.45,58.21 14340.43,52.64 14237.98,43.98 14153.69,36.86 14142.40,35.91 14117.85,33.87 14093.60,31.79 14068.99,29.74 14044.88,27.70 14024.36,25.93 13983.96,22.50 13901.14,15.44 13855.29,11.52 13823.57,8.97 13782.74,5.59 13748.44,3.22 13731.52,2.24 13698.08,0.81 13667.50,0.31 13640.24,0.00 13620.56,0.08 13590.73,0.74 13581.57,1.09 13561.90,1.85 13545.06,2.71 13525.39,3.97 13503.53,5.59 13480.98,7.44 13458.12,9.65 13430.40,12.36 13405.04,14.98 13378.44,17.81 13357.59,20.02 13322.49,23.84 13312.98,24.88 13301.54,26.07 13290.72,27.23 13274.50,28.95 13261.05,30.37 13249.40,31.60 13209.48,35.78 13189.35,37.91 13162.42,40.79 13141.23,43.00 13125.96,44.61 13103.23,47.04 13075.07,49.95 13048.74,52.78 13025.65,55.16 13003.73,57.60 12970.64,61.08 12944.64,63.80 12912.84,67.13 12883.07,70.33 12859.49,72.82 12822.28,76.81 12787.83,80.46 12765.76,82.77 12739.39,85.57 12713.97,88.29 12675.96,92.31 12639.79,96.21 12615.04,98.87 12571.09,103.50 12538.08,107.01 12499.16,111.12 12483.89,112.80 12455.25,115.79 12433.31,118.09 12412.21,120.33 12362.96,125.52 12343.02,127.69 12301.78,132.03 12282.81,134.05 12259.42,136.49 12237.73,138.71 12207.25,141.89 12185.52,144.25 12160.77,146.86 12137.58,149.38 11989.85,165.09 11961.35,168.07 11935.94,170.81 11823.74,182.63 11796.62,185.50 11742.00,191.31 11725.26,193.11 11706.71,195.09 11673.89,198.49 11646.39,201.36 11606.64,205.54 11569.31,209.37 11528.93,213.25 11469.05,218.09 11450.34,219.33 11418.91,221.16 11364.29,223.81 11315.66,225.46 11270.15,226.22 11114.00,226.76 11076.07,226.76 11042.92,226.76 11006.15,226.77 10946.94,226.71 10852.47,226.83 10777.47,226.93 10695.00,226.94 10656.66,227.10 10581.82,227.12 10528.88,227.17 10470.77,227.24 10452.75,227.22 10343.51,227.34 10252.80,227.52 10195.32,227.54 10133.82,227.53 10036.57,227.65 9961.62,227.64 9948.56,227.66 9932.03,227.69 9921.59,227.68 9904.78,227.71 9890.51,227.70 9870.81,227.70 9843.90,227.70 9818.21,227.72 9790.63,227.77 9760.05,227.85 9719.33,227.83 9677.44,227.84 9632.46,227.90 9628.27,227.90">
        <lane id="325.0_0" index="0" disallow="all" speed="13.89" length="8641.99" width="3.66" shape="18226.36,506.25 18222.79,505.54 18191.04,499.33 18163.85,493.97 18140.54,489.47 18101.80,481.89 18084.10,478.36 18064.24,474.44 18031.25,467.98 18002.52,462.35 17974.54,456.83 17950.12,452.04 17923.96,446.93 17900.67,442.33 17878.96,438.06 17857.11,433.80 17834.53,429.34 17809.40,424.38 17789.75,420.48 17771.24,416.84 17752.56,413.15 17730.49,408.78 17708.75,404.50 17683.13,399.46 17662.29,395.40 17639.38,390.87 17617.15,386.49 17597.76,382.70 17573.90,378.03 17554.54,374.25 17532.89,370.01 17510.00,365.54 17486.67,360.96 17461.02,355.89 17439.34,351.58 17410.48,345.81 17387.31,341.22 17362.35,336.40 17338.82,332.00 17313.35,327.40 17284.77,322.39 17255.96,317.60 17235.00,314.28 17214.31,311.06 17201.41,309.18 17189.70,307.50 17174.07,305.32 17156.36,302.99 17137.19,300.56 17120.99,298.53 17107.58,296.88 17093.05,295.23 17077.40,293.56 17062.04,292.00 17045.21,290.36 17025.31,288.51 17009.03,287.09 16994.34,285.80 16978.59,284.45 16961.23,282.96 16937.93,281.00 16921.78,279.63 16900.70,277.88 16881.21,276.21 16861.94,274.59 16841.42,272.82 16819.11,270.88 16798.87,269.17 16780.42,267.59 16759.73,265.86 16737.99,264.06 16716.99,262.32 16695.17,260.48 16670.19,258.33 16646.90,256.40 16618.92,254.01 16592.19,251.76 16567.62,249.69 16541.16,247.47 16519.05,245.60 16492.00,243.35 16467.91,241.38 16451.06,239.94 16435.74,238.62 16416.83,237.01 16398.23,235.37 16378.64,233.73 16361.99,232.32 16345.83,230.95 16321.37,228.91 16300.18,227.12 16285.16,225.88 16272.02,224.76 16255.46,223.42 16238.38,222.03 16218.35,220.30 16200.05,218.77 16181.93,217.25 16165.05,215.82 16142.68,213.93 16119.39,211.97 16094.87,209.89 16078.03,208.46 16062.08,207.09 16038.65,205.10 16019.75,203.50 16005.29,202.29 15988.02,200.80 15973.91,199.61 15952.55,197.84 15926.32,195.62 15906.94,194.01 15880.18,191.77 15854.52,189.64 15841.95,188.64 15832.97,187.78 15789.69,184.22 15742.73,180.32 15690.77,175.91 15630.27,170.83 15575.27,166.19 15556.87,164.63 15528.92,162.29 15497.74,159.65 15465.35,157.00 15432.56,154.18 15385.83,150.23 15361.41,148.13 15345.51,146.82 15296.57,142.82 15243.30,138.28 15192.83,133.93 15171.69,132.12 15143.34,129.72 15114.50,127.26 15079.61,124.28 15058.53,122.50 15016.38,118.91 14984.89,116.26 14937.86,112.22 14900.67,109.13 14853.51,105.29 14781.55,99.27 14727.19,94.60 14714.31,93.56 14691.97,91.64 14663.19,89.17 14623.50,85.73 14587.54,82.67 14529.19,77.66 14476.69,73.21 14406.69,67.33 14339.67,61.76 14237.21,53.10 14152.93,45.98 14141.64,45.03 14117.09,42.99 14092.83,40.91 14068.23,38.86 14044.11,36.82 14023.59,35.05 13983.19,31.62 13900.37,24.56 13854.54,20.64 13822.83,18.09 13782.05,14.71 13747.87,12.35 13731.06,11.38 13697.81,9.96 13667.38,9.46 13640.21,9.15 13620.68,9.23 13591.01,9.89 13581.93,10.23 13562.31,10.99 13545.59,11.85 13526.03,13.10 13504.25,14.71 13481.80,16.55 13459.01,18.76 13431.32,21.46 13406.00,24.08 13379.41,26.91 13358.58,29.12 13323.49,32.94 13313.95,33.98 13302.51,35.17 13291.69,36.33 13275.47,38.05 13262.02,39.47 13250.36,40.70 13210.44,44.88 13190.32,47.01 13163.39,49.89 13142.19,52.10 13126.93,53.71 13104.19,56.14 13076.03,59.05 13049.70,61.88 13026.63,64.26 13004.72,66.70 12971.60,70.18 12945.60,72.90 12913.81,76.23 12884.05,79.43 12860.46,81.92 12823.25,85.91 12788.79,89.56 12766.72,91.87 12740.36,94.67 12714.94,97.39 12676.94,101.41 12640.77,105.31 12616.01,107.97 12572.06,112.60 12539.05,116.11 12500.14,120.22 12484.87,121.90 12456.21,124.89 12434.27,127.19 12413.18,129.43 12363.93,134.62 12344.00,136.79 12302.75,141.13 12283.77,143.15 12260.37,145.59 12238.68,147.81 12208.22,150.99 12186.50,153.35 12161.75,155.96 12138.56,158.48 11990.82,174.19 11962.32,177.17 11936.91,179.91 11824.70,191.73 11797.59,194.60 11742.98,200.41 11726.24,202.21 11707.67,204.19 11674.84,207.59 11647.35,210.46 11607.59,214.64 11570.22,218.48 11529.74,222.36 11469.73,227.22 11450.91,228.46 11419.40,230.30 11364.67,232.95 11315.90,234.61 11270.25,235.37 11114.02,235.91 11076.07,235.91 11042.93,235.91 11006.15,235.92 10946.95,235.86 10852.49,235.98 10777.48,236.08 10695.02,236.09 10656.69,236.25 10581.83,236.27 10528.89,236.32 10470.78,236.39 10452.75,236.37 10343.53,236.49 10252.82,236.67 10195.33,236.69 10133.83,236.68 10036.58,236.80 9961.63,236.79 9948.58,236.81 9932.04,236.84 9921.60,236.83 9904.79,236.86 9890.51,236.85 9870.81,236.85 9843.91,236.85 9818.23,236.87 9790.66,236.92 9760.06,237.00 9719.33,236.98 9677.45,236.99 9632.48,237.05 9628.27,237.05" type="shoulder"/>
        <lane id="325.0_1" index="1" speed="13.89" length="8641.99" width="3.66" shape="18227.07,502.66 18223.49,501.95 18191.75,495.74 18164.55,490.38 18141.24,485.88 18102.50,478.30 18084.82,474.77 18064.95,470.85 18031.95,464.39 18003.23,458.76 17975.25,453.24 17950.82,448.45 17924.67,443.34 17901.37,438.74 17879.66,434.47 17857.82,430.21 17835.24,425.75 17810.11,420.79 17790.46,416.89 17771.94,413.25 17753.27,409.56 17731.20,405.19 17709.46,400.91 17683.83,395.87 17663.00,391.81 17640.09,387.28 17617.86,382.90 17598.46,379.11 17574.60,374.44 17555.24,370.66 17533.59,366.42 17510.70,361.95 17487.37,357.37 17461.73,352.30 17440.05,347.99 17411.19,342.22 17388.01,337.63 17363.03,332.80 17339.48,328.40 17313.99,323.80 17285.38,318.78 17256.54,313.99 17235.57,310.66 17214.86,307.44 17201.93,305.55 17190.21,303.88 17174.56,301.69 17156.83,299.36 17137.65,296.93 17121.44,294.90 17108.01,293.24 17093.45,291.59 17077.78,289.92 17062.40,288.35 17045.56,286.72 17025.64,284.87 17009.35,283.45 16994.66,282.15 16978.91,280.80 16961.54,279.31 16938.23,277.35 16922.09,275.98 16901.00,274.23 16881.52,272.56 16862.25,270.94 16841.73,269.17 16819.43,267.23 16799.18,265.52 16780.73,263.94 16760.03,262.21 16738.29,260.41 16717.30,258.67 16695.48,256.83 16670.50,254.68 16647.20,252.75 16619.23,250.36 16592.49,248.11 16567.93,246.04 16541.46,243.82 16519.36,241.95 16492.30,239.70 16468.22,237.73 16451.38,236.29 16436.06,234.97 16417.14,233.36 16398.55,231.72 16378.94,230.08 16362.30,228.67 16346.14,227.30 16321.68,225.26 16300.49,223.47 16285.47,222.23 16272.32,221.11 16255.76,219.77 16238.68,218.38 16218.66,216.65 16200.36,215.12 16182.23,213.60 16165.36,212.17 16142.98,210.28 16119.70,208.32 16095.18,206.24 16078.34,204.81 16062.39,203.44 16038.96,201.45 16020.05,199.85 16005.60,198.64 15988.33,197.15 15974.22,195.96 15952.86,194.19 15926.63,191.97 15907.25,190.36 15880.48,188.12 15854.82,185.99 15842.27,184.99 15833.29,184.14 15789.99,180.57 15743.04,176.67 15691.07,172.26 15630.57,167.18 15575.58,162.54 15557.17,160.98 15529.22,158.64 15498.04,156.00 15465.66,153.35 15432.87,150.53 15386.14,146.58 15361.72,144.48 15345.81,143.17 15296.88,139.17 15243.62,134.63 15193.14,130.28 15172.00,128.47 15143.65,126.07 15114.81,123.61 15079.92,120.63 15058.84,118.85 15016.69,115.26 14985.20,112.61 14938.17,108.57 14900.97,105.48 14853.81,101.64 14781.86,95.62 14727.50,90.95 14714.62,89.91 14692.29,87.99 14663.50,85.52 14623.81,82.08 14587.86,79.02 14529.50,74.01 14476.99,69.56 14407.00,63.68 14339.98,58.11 14237.52,49.45 14153.23,42.33 14141.95,41.38 14117.39,39.34 14093.14,37.26 14068.54,35.21 14044.42,33.17 14023.90,31.40 13983.50,27.97 13900.68,20.91 13854.84,16.99 13823.13,14.44 13782.33,11.06 13748.10,8.70 13731.25,7.72 13697.92,6.30 13667.43,5.80 13640.22,5.49 13620.64,5.57 13590.90,6.23 13581.79,6.58 13562.15,7.33 13545.38,8.19 13525.77,9.45 13503.96,11.06 13481.47,12.91 13458.66,15.11 13430.95,17.82 13405.62,20.44 13379.02,23.27 13358.18,25.48 13323.09,29.30 13313.57,30.34 13302.12,31.53 13291.31,32.69 13275.08,34.41 13261.63,35.83 13249.98,37.06 13210.06,41.24 13189.94,43.37 13163.00,46.25 13141.81,48.46 13126.55,50.07 13103.81,52.50 13075.65,55.41 13049.32,58.24 13026.24,60.62 13004.33,63.06 12971.22,66.54 12945.22,69.26 12913.42,72.59 12883.66,75.79 12860.08,78.28 12822.87,82.27 12788.41,85.92 12766.34,88.23 12739.98,91.03 12714.56,93.75 12676.55,97.77 12640.38,101.67 12615.62,104.33 12571.67,108.96 12538.66,112.47 12499.75,116.58 12484.48,118.26 12455.83,121.25 12433.89,123.55 12412.79,125.79 12363.55,130.98 12343.61,133.15 12302.36,137.49 12283.39,139.51 12259.99,141.95 12238.30,144.17 12207.83,147.35 12186.11,149.71 12161.36,152.32 12138.17,154.84 11990.43,170.55 11961.93,173.53 11936.53,176.27 11824.32,188.09 11797.20,190.96 11742.59,196.77 11725.85,198.57 11707.29,200.55 11674.46,203.95 11646.97,206.82 11607.21,211.00 11569.86,214.83 11529.42,218.72 11469.46,223.57 11450.69,224.81 11419.21,226.64 11364.52,229.30 11315.80,230.95 11270.21,231.71 11114.01,232.25 11076.07,232.25 11042.93,232.25 11006.15,232.26 10946.95,232.20 10852.48,232.32 10777.48,232.42 10695.02,232.43 10656.68,232.59 10581.83,232.61 10528.89,232.66 10470.78,232.73 10452.75,232.71 10343.52,232.83 10252.81,233.01 10195.33,233.03 10133.83,233.02 10036.58,233.14 9961.63,233.13 9948.57,233.15 9932.04,233.18 9921.60,233.17 9904.79,233.20 9890.51,233.19 9870.81,233.19 9843.91,233.19 9818.22,233.21 9790.65,233.26 9760.06,233.34 9719.33,233.32 9677.45,233.33 9632.47,233.39 9628.27,233.39"/>
        <lane id="325.0_2" index="2" speed="13.89" length="8641.99" width="3.66" shape="18227.78,499.07 18224.19,498.36 18192.45,492.15 18165.25,486.79 18141.94,482.29 18103.21,474.71 18085.53,471.18 18065.65,467.26 18032.65,460.80 18003.93,455.17 17975.95,449.65 17951.52,444.86 17925.37,439.75 17902.08,435.15 17880.36,430.88 17858.52,426.62 17835.95,422.16 17810.82,417.20 17791.17,413.30 17772.65,409.66 17753.98,405.97 17731.91,401.60 17710.16,397.32 17684.53,392.28 17663.70,388.22 17640.80,383.69 17618.56,379.31 17599.16,375.52 17575.30,370.85 17555.94,367.07 17534.29,362.83 17511.40,358.36 17488.08,353.78 17462.44,348.71 17440.77,344.40 17411.91,338.63 17388.71,334.04 17363.71,329.21 17340.14,324.80 17314.63,320.19 17286.00,315.17 17257.13,310.38 17236.14,307.05 17215.40,303.82 17202.45,301.93 17190.72,300.25 17175.05,298.06 17157.30,295.73 17138.11,293.30 17121.89,291.27 17108.44,289.61 17093.85,287.95 17078.16,286.28 17062.76,284.71 17045.90,283.07 17025.97,281.22 17009.67,279.80 16994.98,278.50 16979.22,277.15 16961.85,275.66 16938.54,273.70 16922.39,272.33 16901.31,270.58 16881.83,268.91 16862.56,267.29 16842.05,265.52 16819.74,263.58 16799.49,261.87 16781.04,260.29 16760.33,258.56 16738.59,256.76 16717.60,255.02 16695.79,253.18 16670.81,251.03 16647.51,249.10 16619.54,246.71 16592.80,244.46 16568.23,242.39 16541.77,240.17 16519.66,238.30 16492.60,236.05 16468.52,234.08 16451.69,232.64 16436.37,231.32 16417.46,229.71 16398.86,228.07 16379.25,226.43 16362.61,225.02 16346.44,223.65 16321.98,221.61 16300.79,219.82 16285.77,218.58 16272.62,217.46 16256.06,216.12 16238.99,214.73 16218.97,213.00 16200.66,211.47 16182.54,209.95 16165.67,208.52 16143.29,206.63 16120.01,204.67 16095.49,202.59 16078.65,201.16 16062.70,199.79 16039.27,197.80 16020.36,196.20 16005.91,194.99 15988.64,193.50 15974.52,192.31 15953.16,190.54 15926.93,188.32 15907.55,186.71 15880.78,184.47 15855.12,182.34 15842.59,181.34 15833.61,180.49 15790.29,176.92 15743.34,173.02 15691.38,168.61 15630.88,163.53 15575.89,158.89 15557.48,157.33 15529.53,154.99 15498.34,152.35 15465.96,149.70 15433.18,146.88 15386.45,142.93 15362.03,140.83 15346.11,139.52 15297.18,135.52 15243.93,130.98 15193.46,126.63 15172.31,124.82 15143.96,122.42 15115.12,119.96 15080.23,116.98 15059.15,115.20 15017.00,111.61 14985.51,108.96 14938.48,104.92 14901.27,101.83 14854.11,97.99 14782.17,91.97 14727.81,87.30 14714.92,86.26 14692.60,84.34 14663.82,81.87 14624.13,78.43 14588.17,75.37 14529.81,70.36 14477.30,65.91 14407.30,60.03 14340.28,54.46 14237.83,45.80 14153.54,38.68 14142.25,37.73 14117.70,35.69 14093.45,33.61 14068.84,31.56 14044.73,29.52 14024.21,27.75 13983.81,24.32 13900.99,17.26 13855.14,13.34 13823.43,10.79 13782.61,7.41 13748.33,5.05 13731.43,4.07 13698.03,2.64 13667.48,2.14 13640.24,1.83 13620.59,1.91 13590.79,2.57 13581.65,2.92 13561.99,3.68 13545.17,4.54 13525.52,5.80 13503.68,7.41 13481.15,9.26 13458.30,11.47 13430.59,14.18 13405.24,16.80 13378.64,19.63 13357.79,21.84 13322.69,25.66 13313.18,26.70 13301.74,27.89 13290.92,29.05 13274.70,30.77 13261.25,32.19 13249.60,33.42 13209.68,37.60 13189.55,39.73 13162.62,42.61 13141.43,44.82 13126.16,46.43 13103.43,48.86 13075.27,51.77 13048.94,54.60 13025.85,56.98 13003.93,59.42 12970.84,62.90 12944.84,65.62 12913.04,68.95 12883.27,72.15 12859.69,74.64 12822.48,78.63 12788.03,82.28 12765.96,84.59 12739.59,87.39 12714.17,90.11 12676.16,94.13 12639.99,98.03 12615.24,100.69 12571.29,105.32 12538.28,108.83 12499.36,112.94 12484.09,114.62 12455.45,117.61 12433.51,119.91 12412.41,122.15 12363.16,127.34 12343.22,129.51 12301.98,133.85 12283.01,135.87 12259.61,138.31 12237.92,140.53 12207.45,143.71 12185.72,146.07 12160.97,148.68 12137.78,151.20 11990.05,166.91 11961.55,169.89 11936.14,172.63 11823.94,184.45 11796.82,187.32 11742.20,193.13 11725.46,194.93 11706.91,196.91 11674.08,200.31 11646.59,203.18 11606.83,207.36 11569.50,211.19 11529.10,215.07 11469.19,219.92 11450.46,221.16 11419.01,222.99 11364.37,225.64 11315.71,227.29 11270.17,228.05 11114.01,228.59 11076.07,228.59 11042.93,228.59 11006.15,228.60 10946.95,228.54 10852.48,228.66 10777.48,228.76 10695.01,228.77 10656.67,228.93 10581.83,228.95 10528.89,229.00 10470.78,229.07 10452.75,229.05 10343.52,229.17 10252.81,229.35 10195.33,229.37 10133.83,229.36 10036.58,229.48 9961.63,229.47 9948.57,229.49 9932.04,229.52 9921.60,229.51 9904.79,229.54 9890.51,229.53 9870.81,229.53 9843.91,229.53 9818.22,229.55 9790.64,229.60 9760.06,229.68 9719.33,229.66 9677.45,229.67 9632.47,229.73 9628.27,229.73"/>
    </edge>
    <edge id="332.0" from="node_332_start" to="node_332_end" priority="-1" type="town" shape="9538.11,227.99 9532.44,228.00 9480.99,228.05 9434.41,228.01 9371.54,228.05 9309.00,228.13 9258.24,228.19 9227.32,228.28 9207.98,228.20 9185.77,228.22 9162.26,228.24 9140.48,228.27 9122.42,228.31 9106.11,228.31 9089.59,228.31 9073.43,228.31 9060.84,228.32 9045.54,228.34 9030.75,228.35 9011.59,228.37 8992.15,228.37 8971.30,228.41 8948.24,228.45 8928.63,228.47 8907.46,228.48 8887.57,228.52 8864.28,228.56 8843.70,228.56 8825.60,228.58">
        <lane id="332.0_0" index="0" disallow="all" speed="13.89" length="709.51" width="3.66" shape="9536.63,237.14 9532.45,237.15 9481.00,237.20 9434.41,237.16 9371.55,237.20 9309.02,237.28 9258.26,237.34 9227.32,237.43 9207.97,237.35 9185.78,237.37 9162.28,237.39 9140.50,237.42 9122.44,237.46 9106.11,237.46 9089.59,237.46 9073.44,237.46 9060.85,237.47 9045.55,237.49 9030.76,237.50 9011.60,237.52 8992.16,237.52 8971.32,237.56 8948.26,237.60 8928.64,237.62 8907.48,237.63 8887.59,237.67 8864.29,237.71 8843.71,237.71 8827.12,237.73" type="shoulder"/>
        <lane id="332.0_1" index="1" speed="13.89" length="709.51" width="3.66" shape="9536.62,233.48 9532.45,233.49 9481.00,233.54 9434.41,233.50 9371.55,233.54 9309.01,233.62 9258.26,233.68 9227.32,233.77 9207.98,233.69 9185.78,233.71 9162.27,233.73 9140.49,233.76 9122.43,233.80 9106.11,233.80 9089.59,233.80 9073.44,233.80 9060.85,233.81 9045.55,233.83 9030.76,233.84 9011.60,233.86 8992.16,233.86 8971.31,233.90 8948.25,233.94 8928.64,233.96 8907.47,233.97 8887.59,234.01 8864.29,234.05 8843.71,234.05 8827.11,234.07"/>
        <lane id="332.0_2" index="2" speed="13.89" length="709.51" width="3.66" shape="9536.62,229.82 9532.45,229.83 9481.00,229.88 9434.41,229.84 9371.55,229.88 9309.01,229.96 9258.25,230.02 9227.32,230.11 9207.98,230.03 9185.78,230.05 9162.27,230.07 9140.49,230.10 9122.43,230.14 9106.11,230.14 9089.59,230.14 9073.44,230.14 9060.85,230.15 9045.55,230.17 9030.76,230.18 9011.60,230.20 8992.16,230.20 8971.31,230.24 8948.25,230.28 8928.64,230.30 8907.47,230.31 8887.58,230.35 8864.29,230.39 8843.71,230.39 8827.11,230.41"/>
    </edge>
    <edge id="333.0" from="node_333_start" to="node_333_end" priority="-1" type="town" shape="9538.19,237.96 9515.49,239.97 9486.75,242.57 9465.35,244.77 9445.43,246.98 9418.56,250.15 9398.92,252.97 9374.88,257.28 9344.78,263.10 9325.30,266.84">
        <lane id="333.0_0" index="0" speed="13.89" length="214.68" width="3.66" shape="9538.20,239.80 9515.66,241.79 9486.93,244.39 9465.55,246.59 9445.64,248.80 9418.80,251.96 9399.22,254.78 9375.22,259.08 9345.13,264.90 9325.65,268.64"/>
    </edge>
    <edge id="334.0" from="junction_87" to="node_332_start" priority="-1" type="town" shape="9572.15,227.95 9538.11,227.99">
        <lane id="334.0_0" index="0" speed="13.89" length="25.89" width="3.66" shape="9565.51,233.45 9539.62,233.48"/>
        <lane id="334.0_1" index="1" speed="13.89" length="25.89" width="3.66" shape="9565.51,229.79 9539.62,229.82"/>
    </edge>
    <edge id="335.0" from="junction_87" to="node_333_start" priority="-1" type="town" shape="9572.10,235.05 9553.51,236.65 9538.19,237.96">
        <lane id="335.0_0" index="0" speed="13.89" length="27.28" width="3.66" shape="9565.68,237.44 9553.67,238.47 9538.50,239.77"/>
    </edge>
    <edge id="336.0" from="node_332_end" to="j_merge_start_25" priority="-1" type="town" shape="8825.60,228.58 8811.14,228.62 8795.65,228.68 8780.63,228.71 8763.92,228.81 8752.30,228.95">
        <lane id="336.0_0" index="0" speed="13.89" length="71.76" width="3.66" shape="8824.12,234.07 8811.16,234.11 8795.67,234.17 8780.66,234.20 8763.97,234.30 8752.37,234.44"/>
        <lane id="336.0_1" index="1" speed="13.89" length="71.76" width="3.66" shape="8824.11,230.41 8811.15,230.45 8795.66,230.51 8780.64,230.54 8763.94,230.64 8752.33,230.78"/>
    </edge>