<?xml version='1.0' encoding='utf-8'?>
<connections>
    <connection from="338.0" to="merge_zone_25" fromLane="0" toLane="0" />
    <connection from="merge_zone_25" to="337.0" fromLane="0" toLane="2" dir="r" state="m" />
    <connection from="336.0" to="merge_zone_25" fromLane="1" toLane="2" />
    <connection from="336.0" to="merge_zone_25" fromLane="0" toLane="1" />
    <connection from="merge_zone_25" to="337.0" fromLane="2" toLane="2" />
    <connection from="merge_zone_25" to="337.0" fromLane="1" toLane="1" />
    <connection from="325.0" to="335.0" fromLane="1" toLane="0" />
    <connection from="325.0" to="334.0" fromLane="2" toLane="1" />
    <connection from="325.0" to="334.0" fromLane="1" toLane="0" />
</connections>