<?xml version="1.0" encoding="UTF-8"?>

<!-- generated on 2025-10-19 17:33:43 by Eclipse SUMO netconvert Version 1.23.1
<netconvertConfiguration xmlns:xsi="http://www.w3.org/2001/XMLSchema-instance" xsi:noNamespaceSchemaLocation="http://sumo.dlr.de/xsd/netconvertConfiguration.xsd">

    <input>
        <node-files value="/home/sdai/harry/TeraSim/jupiter/wb/jupiter_wb_tiles/tile_0160/tile_0160.nod.xml"/>
        <edge-files value="/home/sdai/harry/TeraSim/jupiter/wb/jupiter_wb_tiles/tile_0160/tile_0160.edg.xml"/>
        <connection-files value="/home/sdai/harry/TeraSim/jupiter/wb/jupiter_wb_tiles/tile_0160/tile_0160.con.xml"/>
    </input>

    <output>
        <output-file value="/home/sdai/harry/TeraSim/jupiter/wb/jupiter_wb_tiles/tile_0160/tile_0160.net.xml"/>
        <output.street-names value="true"/>
        <output.original-names value="true"/>
    </output>

    <processing>
        <geometry.remove value="false"/>
        <geometry.min-dist value="0.5"/>
        <edges.join value="false"/>
    </processing>

    <junctions>
        <no-internal-links value="false"/>
        <no-turnarounds value="true"/>
        <junctions.join value="true"/>
        <junctions.join-dist value="10"/>
        <junctions.corner-detail value="5"/>
        <junctions.internal-link-detail value="5"/>
        <junctions.limit-turn-speed value="5.5"/>
        <rectangular-lane-cut value="true"/>
        <check-lane-foes.all value="true"/>
    </junctions>

</netconvertConfiguration>
-->

<net version="1.20" junctionCornerDetail="5" junctionLinkDetail="5" rectangularLaneCut="true" limitTurnSpeed="5.50" checkLaneFoesAll="1" xmlns:xsi="http://www.w3.org/2001/XMLSchema-instance" xsi:noNamespaceSchemaLocation="http://sumo.dlr.de/xsd/net_file.xsd">

    <location netOffset="-772362.43,-3295519.85" convBoundary="0.00,0.00,9224.48,2049.26" origBoundary="0.00,0.00,781759.04,3297569.11" projParameter="!"/>

    <edge id=":j_merge_end_1_0" function="internal">
        <lane id=":j_merge_end_1_0_0" index="0" disallow="all" speed="13.89" length="47.07" width="3.66" shape="7521.83,2017.94 7507.86,2014.16 7499.40,2007.36 7490.94,2000.57 7476.97,1996.82"/>
        <lane id=":j_merge_end_1_0_1" index="1" speed="13.89" length="47.07" width="3.66" shape="7522.32,2010.64 7476.25,2007.77"/>
        <lane id=":j_merge_end_1_0_2" index="2" speed="13.89" length="47.07" width="3.66" shape="7522.57,2006.99 7476.49,2004.12"/>
        <lane id=":j_merge_end_1_0_3" index="3" speed="13.89" length="47.07" width="3.66" shape="7522.82,2003.34 7476.73,2000.47"/>
        <lane id=":j_merge_end_1_0_4" index="4" disallow="all" speed="13.89" length="47.07" width="3.66" shape="7523.07,1999.69 7476.97,1996.82"/>
    </edge>
    <edge id=":j_merge_end_18_0" function="internal">
        <lane id=":j_merge_end_18_0_0" index="0" disallow="all" speed="13.89" length="42.80" width="3.66" shape="1382.32,37.53 1369.96,33.23 1362.57,27.04 1355.16,20.97 1342.76,17.03"/>
        <lane id=":j_merge_end_18_0_1" index="1" speed="13.89" length="42.80" width="3.66" shape="1382.90,33.91 1341.31,27.92"/>
        <lane id=":j_merge_end_18_0_2" index="2" speed="13.89" length="42.80" width="3.66" shape="1383.49,30.30 1341.80,24.29"/>
        <lane id=":j_merge_end_18_0_3" index="3" speed="13.89" length="42.80" width="3.66" shape="1384.07,26.69 1342.28,20.66"/>
        <lane id=":j_merge_end_18_0_4" index="4" disallow="all" speed="13.89" length="42.80" width="3.66" shape="1384.66,23.08 1342.76,17.03"/>
    </edge>
    <edge id=":j_merge_end_19_0" function="internal">
        <lane id=":j_merge_end_19_0_0" index="0" disallow="all" speed="13.89" length="38.38" width="3.66" shape="4832.39,1656.44 4822.95,1649.42 4818.68,1641.72 4814.50,1633.85 4805.30,1626.35"/>
        <lane id=":j_merge_end_19_0_1" index="1" speed="13.89" length="38.38" width="3.66" shape="4833.95,1653.14 4800.14,1636.04"/>
        <lane id=":j_merge_end_19_0_2" index="2" speed="13.89" length="38.38" width="3.66" shape="4835.52,1649.83 4801.86,1632.81"/>
        <lane id=":j_merge_end_19_0_3" index="3" speed="13.89" length="38.38" width="3.66" shape="4837.09,1646.52 4803.58,1629.58"/>
        <lane id=":j_merge_end_19_0_4" index="4" disallow="all" speed="13.89" length="38.38" width="3.66" shape="4838.66,1643.21 4805.30,1626.35"/>
    </edge>
    <edge id=":j_merge_start_1_0" function="internal">
        <lane id=":j_merge_start_1_0_0" index="0" speed="13.89" length="57.65" width="3.66" shape="7660.88,2029.16 7603.55,2023.09"/>
    </edge>
    <edge id=":j_merge_start_1_1" function="internal">
        <lane id=":j_merge_start_1_1_0" index="0" speed="13.89" length="57.49" width="3.66" shape="7661.39,2019.38 7604.01,2015.78"/>
        <lane id=":j_merge_start_1_1_1" index="1" speed="13.89" length="57.49" width="3.66" shape="7661.62,2015.72 7604.24,2012.13"/>
        <lane id=":j_merge_start_1_1_2" index="2" speed="13.89" length="57.49" width="3.66" shape="7661.84,2012.07 7604.47,2008.48"/>
        <lane id=":j_merge_start_1_1_3" index="3" disallow="all" speed="13.89" length="57.49" width="3.66" shape="7662.07,2008.42 7604.70,2004.83"/>
    </edge>
    <edge id=":j_merge_start_18_0" function="internal">
        <lane id=":j_merge_start_18_0_0" index="0" speed="13.89" length="50.02" width="3.66" shape="1576.87,80.12 1528.60,66.99"/>
    </edge>
    <edge id=":j_merge_start_18_1" function="internal">
        <lane id=":j_merge_start_18_1_0" index="0" speed="13.89" length="50.18" width="3.66" shape="1577.85,76.14 1529.44,63.43"/>
        <lane id=":j_merge_start_18_1_1" index="1" speed="13.89" length="50.18" width="3.66" shape="1578.77,72.60 1530.28,59.87"/>
        <lane id=":j_merge_start_18_1_2" index="2" speed="13.89" length="50.18" width="3.66" shape="1579.69,69.05 1531.12,56.30"/>
        <lane id=":j_merge_start_18_1_3" index="3" disallow="all" speed="13.89" length="50.18" width="3.66" shape="1580.61,65.51 1531.95,52.74"/>
    </edge>
    <edge id=":j_merge_start_19_0" function="internal">
        <lane id=":j_merge_start_19_0_0" index="0" speed="13.89" length="63.52" width="3.66" shape="5090.88,1751.61 5030.25,1732.66"/>
    </edge>
    <edge id=":j_merge_start_19_1" function="internal">
        <lane id=":j_merge_start_19_1_0" index="0" speed="13.89" length="63.41" width="3.66" shape="5091.89,1747.94 5031.32,1729.16"/>
        <lane id=":j_merge_start_19_1_1" index="1" speed="13.89" length="63.41" width="3.66" shape="5092.96,1744.45 5032.40,1725.67"/>
        <lane id=":j_merge_start_19_1_2" index="2" speed="13.89" length="63.41" width="3.66" shape="5094.04,1740.95 5033.48,1722.17"/>
        <lane id=":j_merge_start_19_1_3" index="3" disallow="all" speed="13.89" length="63.41" width="3.66" shape="5095.11,1737.45 5034.55,1718.67"/>
    </edge>
    <edge id=":junction_4_0" function="internal">
        <lane id=":junction_4_0_0" index="0" speed="13.89" length="81.81" width="3.66" shape="3451.27,785.09 3441.82,780.16 3423.27,770.75 3400.28,759.81 3377.53,750.24"/>
        <lane id=":junction_4_0_1" index="1" speed="13.89" length="81.81" width="3.66" shape="3451.27,785.09 3442.02,779.62 3423.91,769.04 3401.36,756.92 3378.81,746.81"/>
    </edge>
    <edge id=":junction_4_2" function="internal">
        <lane id=":junction_4_2_0" index="0" speed="13.89" length="81.04" width="3.66" shape="3454.66,775.39 3378.81,746.81"/>
        <lane id=":junction_4_2_1" index="1" speed="13.89" length="81.04" width="3.66" shape="3455.94,771.96 3380.10,743.39"/>
        <lane id=":junction_4_2_2" index="2" speed="13.89" length="81.04" width="3.66" shape="3457.22,768.53 3381.38,739.96"/>
        <lane id=":junction_4_2_3" index="3" disallow="all" speed="13.89" length="81.04" width="3.66" shape="3458.50,765.10 3382.67,736.53"/>
    </edge>
    <edge id=":junction_65_0" function="internal">
        <lane id=":junction_65_0_0" index="0" speed="13.89" length="140.93" width="3.66" shape="6605.49,1947.57 6464.73,1940.61"/>
    </edge>
    <edge id=":junction_65_1" function="internal">
        <lane id=":junction_65_1_0" index="0" speed="13.89" length="142.06" width="3.66" shape="6605.83,1943.93 6464.43,1931.03"/>
        <lane id=":junction_65_1_1" index="1" speed="13.89" length="142.06" width="3.66" shape="6606.16,1940.28 6464.72,1927.38"/>
        <lane id=":junction_65_1_2" index="2" speed="13.89" length="142.06" width="3.66" shape="6606.50,1936.64 6465.00,1923.74"/>
        <lane id=":junction_65_1_3" index="3" disallow="all" speed="13.89" length="142.06" width="3.66" shape="6606.83,1932.99 6465.29,1920.09"/>
    </edge>
    <edge id=":junction_66_0" function="internal">
        <lane id=":junction_66_0_0" index="0" speed="13.89" length="195.42" width="3.66" shape="2741.98,507.22 2557.85,441.78"/>
    </edge>
    <edge id=":junction_66_1" function="internal">
        <lane id=":junction_66_1_0" index="0" speed="13.89" length="195.94" width="3.66" shape="2741.98,507.22 2558.56,438.26"/>
        <lane id=":junction_66_1_1" index="1" speed="13.89" length="195.94" width="3.66" shape="2743.27,503.80 2559.87,434.84"/>
        <lane id=":junction_66_1_2" index="2" speed="13.89" length="195.94" width="3.66" shape="2744.56,500.38 2561.18,431.42"/>
    </edge>
    <edge id=":junction_67_0" function="internal">
        <lane id=":junction_67_0_0" index="0" speed="13.89" length="158.15" width="3.66" shape="2891.63,555.49 2856.56,545.03 2806.32,532.44 2760.45,521.54 2738.48,516.18"/>
    </edge>
    <edge id=":junction_68_0" function="internal">
        <lane id=":junction_68_0_0" index="0" speed="13.89" length="67.21" width="3.66" shape="491.02,125.09 428.37,149.41"/>
    </edge>
    <edge id=":junction_68_1" function="internal">
        <lane id=":junction_68_1_0" index="0" speed="13.89" length="67.87" width="3.66" shape="491.02,125.09 426.39,145.81"/>
        <lane id=":junction_68_1_1" index="1" speed="13.89" length="67.87" width="3.66" shape="489.92,121.60 425.28,142.32"/>
        <lane id=":junction_68_1_2" index="2" speed="13.89" length="67.87" width="3.66" shape="488.81,118.11 424.18,138.83"/>
        <lane id=":junction_68_1_3" index="3" disallow="all" speed="13.89" length="67.87" width="3.66" shape="487.70,114.62 423.07,135.34"/>
    </edge>
    <edge id=":node_15_end_0" function="internal">
        <lane id=":node_15_end_0_0" index="0" speed="13.89" length="0.30" width="3.66" shape="6710.74,1957.80 6710.44,1957.77"/>
        <lane id=":node_15_end_0_1" index="1" speed="13.89" length="0.30" width="3.66" shape="6711.10,1954.16 6710.80,1954.13"/>
        <lane id=":node_15_end_0_2" index="2" speed="13.89" length="0.30" width="3.66" shape="6711.47,1950.52 6711.17,1950.49"/>
        <lane id=":node_15_end_0_3" index="3" speed="13.89" length="0.30" width="3.66" shape="6711.83,1946.88 6711.53,1946.85"/>
    </edge>
    <edge id=":node_15_start_0" function="internal">
        <lane id=":node_15_start_0_0" index="0" speed="13.89" length="0.30" width="3.66" shape="7375.97,2005.15 7375.68,2005.13"/>
        <lane id=":node_15_start_0_1" index="1" speed="13.89" length="0.30" width="3.66" shape="7376.20,2001.49 7375.90,2001.48"/>
        <lane id=":node_15_start_0_2" index="2" speed="13.89" length="0.30" width="3.66" shape="7376.43,1997.84 7376.13,1997.82"/>
        <lane id=":node_15_start_0_3" index="3" speed="13.89" length="0.30" width="3.66" shape="7376.65,1994.19 7376.35,1994.17"/>
    </edge>
    <edge id=":node_232_end_0" function="internal">
        <lane id=":node_232_end_0_0" index="0" speed="13.89" length="0.30" width="3.66" shape="859.00,31.58 858.70,31.62"/>
        <lane id=":node_232_end_0_1" index="1" speed="13.89" length="0.30" width="3.66" shape="858.50,27.95 858.20,27.99"/>
        <lane id=":node_232_end_0_2" index="2" speed="13.89" length="0.30" width="3.66" shape="858.00,24.33 857.70,24.37"/>
    </edge>
    <edge id=":node_241_end_0" function="internal">
        <lane id=":node_241_end_0_0" index="0" speed="13.89" length="0.30" width="3.66" shape="4525.93,1435.00 4525.70,1434.78"/>
        <lane id=":node_241_end_0_1" index="1" speed="13.89" length="0.30" width="3.66" shape="4528.48,1432.37 4528.26,1432.16"/>
        <lane id=":node_241_end_0_2" index="2" speed="13.89" length="0.30" width="3.66" shape="4531.02,1429.74 4530.82,1429.54"/>
    </edge>
    <edge id=":node_27_end_0" function="internal">
        <lane id=":node_27_end_0_0" index="0" speed="13.89" length="3.00" width="3.66" shape="1719.88,122.23 1717.07,121.19"/>
        <lane id=":node_27_end_0_1" index="1" speed="13.89" length="3.00" width="3.66" shape="1721.16,118.80 1718.34,117.76"/>
        <lane id=":node_27_end_0_2" index="2" speed="13.89" length="3.00" width="3.66" shape="1722.43,115.37 1719.62,114.33"/>
    </edge>
    <edge id=":node_27_start_0" function="internal">
        <lane id=":node_27_start_0_0" index="0" speed="13.89" length="3.00" width="3.66" shape="2408.46,381.56 2405.66,380.50"/>
        <lane id=":node_27_start_0_1" index="1" speed="13.89" length="3.00" width="3.66" shape="2409.76,378.13 2406.95,377.07"/>
        <lane id=":node_27_start_0_2" index="2" speed="13.89" length="3.00" width="3.66" shape="2411.05,374.71 2408.24,373.65"/>
    </edge>
    <edge id=":node_30_end_0" function="internal">
        <lane id=":node_30_end_0_0" index="0" speed="13.89" length="0.30" width="3.66" shape="2974.67,598.63 2974.37,598.51"/>
        <lane id=":node_30_end_0_1" index="1" speed="13.89" length="0.30" width="3.66" shape="2975.96,595.20 2975.68,595.09"/>
        <lane id=":node_30_end_0_2" index="2" speed="13.89" length="0.30" width="3.66" shape="2977.25,591.78 2976.98,591.67"/>
        <lane id=":node_30_end_0_3" index="3" speed="13.89" length="0.30" width="3.66" shape="2978.54,588.35 2978.29,588.25"/>
    </edge>
    <edge id=":node_30_start_0" function="internal">
        <lane id=":node_30_start_0_0" index="0" speed="13.89" length="0.30" width="3.66" shape="3287.72,716.32 3287.47,716.22"/>
        <lane id=":node_30_start_0_1" index="1" speed="13.89" length="0.30" width="3.66" shape="3289.03,712.90 3288.76,712.80"/>
        <lane id=":node_30_start_0_2" index="2" speed="13.89" length="0.30" width="3.66" shape="3290.34,709.48 3290.05,709.37"/>
        <lane id=":node_30_start_0_3" index="3" speed="13.89" length="0.30" width="3.66" shape="3291.64,706.06 3291.34,705.95"/>
    </edge>
    <edge id=":node_33_end_0" function="internal">
        <lane id=":node_33_end_0_0" index="0" speed="13.89" length="0.30" width="3.66" shape="3351.00,740.29 3350.71,740.18"/>
        <lane id=":node_33_end_0_1" index="1" speed="13.89" length="0.30" width="3.66" shape="3352.29,736.87 3352.00,736.76"/>
        <lane id=":node_33_end_0_2" index="2" speed="13.89" length="0.30" width="3.66" shape="3353.58,733.44 3353.30,733.34"/>
        <lane id=":node_33_end_0_3" index="3" speed="13.89" length="0.30" width="3.66" shape="3354.87,730.02 3354.60,729.92"/>
    </edge>
    <edge id=":node_34_start_0" function="internal">
        <lane id=":node_34_start_0_0" index="0" speed="13.89" length="2.99" width="3.66" shape="5168.52,1770.41 5165.59,1769.59"/>
        <lane id=":node_34_start_0_1" index="1" speed="13.89" length="2.99" width="3.66" shape="5169.48,1766.87 5166.60,1766.07"/>
        <lane id=":node_34_start_0_2" index="2" speed="13.89" length="2.99" width="3.66" shape="5170.44,1763.34 5167.61,1762.55"/>
    </edge>
    <edge id=":node_35_end_0" function="internal">
        <lane id=":node_35_end_0_0" index="0" speed="13.89" length="0.31" width="3.66" shape="4371.75,1284.49 4371.52,1284.26"/>
        <lane id=":node_35_end_0_1" index="1" speed="13.89" length="0.31" width="3.66" shape="4374.29,1281.85 4374.07,1281.64"/>
        <lane id=":node_35_end_0_2" index="2" speed="13.89" length="0.31" width="3.66" shape="4376.83,1279.22 4376.61,1279.01"/>
    </edge>
    <edge id=":node_39_end_0" function="internal">
        <lane id=":node_39_end_0_0" index="0" speed="13.89" length="0.30" width="3.66" shape="4335.98,1249.60 4335.79,1249.41"/>
        <lane id=":node_39_end_0_1" index="1" speed="13.89" length="0.30" width="3.66" shape="4338.56,1247.00 4338.35,1246.79"/>
        <lane id=":node_39_end_0_2" index="2" speed="13.89" length="0.30" width="3.66" shape="4341.13,1244.39 4340.90,1244.16"/>
    </edge>
    <edge id=":node_42_start_0" function="internal">
        <lane id=":node_42_start_0_0" index="0" speed="13.89" length="0.30" width="3.66" shape="5166.84,1779.97 5166.57,1779.86"/>
    </edge>
    <edge id=":node_49_end_0" function="internal">
        <lane id=":node_49_end_0_0" index="0" speed="13.89" length="0.30" width="3.66" shape="2403.11,392.63 2402.82,392.54"/>
    </edge>
    <edge id=":node_58_start_0" function="internal">
        <lane id=":node_58_start_0_0" index="0" speed="13.89" length="3.00" width="3.66" shape="343.92,171.92 341.07,172.82"/>
        <lane id=":node_58_start_0_1" index="1" speed="13.89" length="3.00" width="3.66" shape="342.81,168.43 339.95,169.34"/>
        <lane id=":node_58_start_0_2" index="2" speed="13.89" length="3.00" width="3.66" shape="341.71,164.94 338.84,165.85"/>
    </edge>
    <edge id=":node_61_end_0" function="internal">
        <lane id=":node_61_end_0_0" index="0" speed="13.89" length="0.30" width="3.66" shape="1714.96,131.01 1714.69,130.88"/>
    </edge>
    <edge id=":node_77_end_0" function="internal">
        <lane id=":node_77_end_0_0" index="0" speed="13.89" length="0.10" width="3.66" shape="345.11,181.99 345.11,181.99"/>
    </edge>

    <edge id="15.0" from="node_15_start" to="node_15_end" priority="-1" type="town" shape="7376.84,1988.70 7370.34,1988.30 7356.14,1987.38 7351.29,1987.08 7346.96,1986.81 7320.76,1985.20 7281.27,1982.78 7253.63,1981.01 7231.93,1979.64 7217.00,1978.72 7200.11,1977.62 7181.59,1976.49 7155.92,1974.83 7124.15,1972.90 7094.51,1970.99 7060.76,1968.93 7032.46,1967.14 7009.41,1965.67 6973.41,1963.37 6951.01,1961.86 6935.41,1960.81 6896.47,1957.92 6866.97,1955.57 6853.65,1954.48 6805.86,1950.35 6782.78,1948.30 6768.52,1946.87 6751.68,1945.24 6728.17,1942.98 6712.22,1941.40">
        <lane id="15.0_0" index="0" disallow="all" speed="13.89" length="666.46" width="3.66" shape="7375.45,2008.78 7369.06,2008.39 7354.85,2007.47 7350.04,2007.17 7345.72,2006.90 7319.53,2005.29 7280.02,2002.87 7252.35,2001.10 7230.68,1999.73 7215.73,1998.81 7198.85,1997.71 7180.32,1996.58 7154.66,1994.92 7122.89,1992.99 7093.25,1991.08 7059.51,1989.02 7031.19,1987.23 7008.13,1985.76 6972.10,1983.46 6949.66,1981.94 6933.99,1980.89 6894.93,1977.99 6865.36,1975.64 6851.96,1974.54 6804.11,1970.40 6780.89,1968.34 6766.55,1966.90 6749.75,1965.28 6726.22,1963.02 6710.38,1961.45" type="shoulder"/>
        <lane id="15.0_1" index="1" speed="13.89" length="666.46" width="3.66" shape="7375.68,2005.13 7369.29,2004.74 7355.09,2003.82 7350.27,2003.52 7345.95,2003.25 7319.75,2001.64 7280.25,1999.22 7252.59,1997.45 7230.90,1996.08 7215.96,1995.16 7199.08,1994.06 7180.55,1992.93 7154.89,1991.27 7123.12,1989.34 7093.48,1987.43 7059.74,1985.37 7031.42,1983.58 7008.36,1982.11 6972.34,1979.81 6949.90,1978.29 6934.25,1977.24 6895.21,1974.34 6865.65,1971.99 6852.27,1970.89 6804.43,1966.76 6781.23,1964.70 6766.91,1963.26 6750.10,1961.63 6726.58,1959.37 6710.74,1957.80"/>
        <lane id="15.0_2" index="2" speed="13.89" length="666.46" width="3.66" shape="7375.90,2001.48 7369.53,2001.08 7355.32,2000.16 7350.50,1999.87 7346.17,1999.60 7319.98,1997.99 7280.47,1995.57 7252.82,1993.79 7231.13,1992.43 7216.19,1991.50 7199.31,1990.40 7180.78,1989.27 7155.12,1987.61 7123.35,1985.68 7093.71,1983.77 7059.97,1981.72 7031.65,1979.92 7008.60,1978.45 6972.58,1976.15 6950.15,1974.64 6934.51,1973.59 6895.49,1970.69 6865.95,1968.34 6852.58,1967.24 6804.75,1963.11 6781.58,1961.05 6767.27,1959.62 6750.45,1957.99 6726.93,1955.73 6711.10,1954.16"/>
        <lane id="15.0_3" index="3" speed="13.89" length="666.46" width="3.66" shape="7376.13,1997.82 7369.76,1997.43 7355.56,1996.51 7350.72,1996.21 7346.40,1995.94 7320.20,1994.33 7280.70,1991.91 7253.05,1990.14 7231.36,1988.77 7216.42,1987.85 7199.54,1986.75 7181.01,1985.62 7155.35,1983.96 7123.58,1982.03 7093.94,1980.12 7060.19,1978.06 7031.88,1976.27 7008.83,1974.80 6972.82,1972.50 6950.40,1970.99 6934.77,1969.94 6895.77,1967.04 6866.24,1964.69 6852.88,1963.60 6805.07,1959.47 6781.92,1957.41 6767.63,1955.98 6750.80,1954.35 6727.29,1952.09 6711.47,1950.52"/>
        <lane id="15.0_4" index="4" speed="13.89" length="666.46" width="3.66" shape="7376.35,1994.17 7369.99,1993.78 7355.79,1992.86 7350.95,1992.56 7346.62,1992.29 7320.43,1990.68 7280.93,1988.26 7253.28,1986.49 7231.59,1985.12 7216.65,1984.20 7199.77,1983.10 7181.25,1981.97 7155.58,1980.31 7123.81,1978.38 7094.17,1976.47 7060.42,1974.41 7032.11,1972.62 7009.06,1971.15 6973.05,1968.85 6950.64,1967.34 6935.02,1966.29 6896.05,1963.39 6866.53,1961.04 6853.19,1959.95 6805.38,1955.82 6782.26,1953.77 6767.98,1952.33 6751.15,1950.70 6727.64,1948.44 6711.83,1946.88"/>
        <lane id="15.0_5" index="5" disallow="all" speed="13.89" length="666.46" width="3.66" shape="7376.58,1990.52 7370.22,1990.13 7356.02,1989.21 7351.18,1988.91 7346.85,1988.64 7320.65,1987.03 7281.16,1984.61 7253.52,1982.84 7231.82,1981.47 7216.89,1980.55 7200.00,1979.45 7181.48,1978.32 7155.81,1976.66 7124.04,1974.73 7094.40,1972.82 7060.65,1970.76 7032.35,1968.97 7009.29,1967.50 6973.29,1965.20 6950.89,1963.69 6935.28,1962.64 6896.33,1959.74 6866.82,1957.39 6853.50,1956.30 6805.70,1952.17 6782.61,1950.12 6768.34,1948.69 6751.51,1947.06 6727.99,1944.80 6712.19,1943.24" type="shoulder"/>
    </edge>
    <edge id="21.0" from="junction_63" to="j_merge_start_1" priority="-1" type="town" shape="9145.88,1902.74 9143.75,1902.98 9124.94,1905.11 9104.34,1907.55 9075.71,1910.78 9034.78,1915.46 9003.42,1918.99 8972.02,1922.41 8949.67,1925.18 8923.42,1928.09 8913.82,1929.27 8899.04,1930.91 8880.79,1933.02 8863.51,1934.91 8843.97,1937.14 8828.96,1938.83 8813.05,1940.62 8796.18,1942.58 8779.66,1944.48 8763.47,1946.19 8743.97,1948.57 8725.18,1950.63 8706.67,1952.77 8670.78,1956.82 8651.88,1959.02 8636.56,1960.71 8616.15,1963.06 8597.85,1965.15 8577.24,1967.46 8555.56,1969.99 8537.73,1972.03 8519.56,1974.09 8500.38,1976.31 8475.36,1979.11 8450.69,1982.02 8432.41,1984.11 8417.22,1985.84 8394.71,1988.40 8380.86,1990.01 8367.07,1991.54 8348.57,1993.68 8332.94,1995.42 8314.22,1997.60 8296.08,1999.68 8278.86,2001.61 8261.99,2003.58 8244.09,2005.52 8229.14,2007.27 8218.50,2008.48 8203.07,2010.26 8184.68,2012.20 8166.47,2014.06 8149.23,2015.63 8132.13,2016.98 8112.89,2018.35 8094.35,2019.49 8072.15,2020.59 8053.27,2021.35 8036.65,2021.77 8023.90,2022.19 8012.51,2022.47 7999.87,2022.67 7986.54,2022.72 7973.91,2022.67 7958.86,2022.62 7944.02,2022.41 7928.84,2022.09 7914.30,2021.61 7903.17,2021.21 7889.77,2020.67 7877.95,2020.11 7864.71,2019.31 7854.52,2018.70 7844.59,2018.12 7833.06,2017.36 7823.51,2016.74 7804.79,2015.57 7785.84,2014.42 7765.34,2013.42 7753.93,2012.38 7744.61,2011.80 7734.39,2011.15 7724.34,2010.52 7713.50,2009.81 7699.82,2008.97 7688.05,2008.23 7680.49,2007.73 7671.56,2007.17 7662.18,2006.59">
        <lane id="21.0_0" index="0" disallow="all" speed="13.89" length="1539.81" width="3.66" shape="9147.73,1919.11 9145.60,1919.35 9126.84,1921.47 9106.23,1923.91 9077.57,1927.14 9036.64,1931.82 9005.23,1935.36 8973.93,1938.77 8951.59,1941.54 8925.33,1944.45 8915.73,1945.63 8900.90,1947.27 8882.63,1949.39 8865.34,1951.28 8845.83,1953.51 8830.80,1955.20 8814.92,1956.98 8798.07,1958.94 8781.47,1960.85 8765.33,1962.55 8745.87,1964.93 8727.02,1967.00 8708.53,1969.13 8672.65,1973.18 8653.74,1975.38 8638.41,1977.08 8618.03,1979.42 8599.70,1981.52 8579.11,1983.82 8557.45,1986.35 8539.59,1988.39 8521.44,1990.45 8502.24,1992.67 8477.24,1995.47 8452.60,1998.38 8434.28,2000.47 8419.08,2002.20 8396.59,2004.76 8382.72,2006.37 8368.93,2007.90 8350.43,2010.04 8334.81,2011.78 8316.11,2013.96 8297.94,2016.05 8280.73,2017.97 8263.83,2019.95 8245.94,2021.89 8231.03,2023.63 8220.38,2024.84 8204.88,2026.63 8186.38,2028.58 8168.05,2030.45 8150.63,2032.04 8133.36,2033.40 8113.98,2034.78 8095.26,2035.93 8072.89,2037.04 8053.81,2037.81 8037.12,2038.23 8024.38,2038.65 8012.84,2038.94 8000.03,2039.14 7986.54,2039.19 7973.85,2039.14 7958.72,2039.09 7943.73,2038.88 7928.40,2038.55 7913.74,2038.07 7902.54,2037.67 7889.05,2037.12 7877.06,2036.56 7863.72,2035.75 7853.55,2035.14 7843.56,2034.56 7831.99,2033.79 7822.47,2033.18 7803.78,2032.01 7784.94,2030.87 7764.19,2029.85 7752.67,2028.80 7743.58,2028.24 7733.35,2027.59 7723.29,2026.96 7712.46,2026.25 7698.80,2025.41 7687.00,2024.67 7679.43,2024.17 7670.54,2023.61 7661.16,2023.03" type="shoulder"/>
        <lane id="21.0_1" index="1" speed="13.89" length="1539.81" width="3.66" shape="9225.92,1906.61 9145.19,1915.71 9126.42,1917.83 9105.81,1920.28 9077.16,1923.51 9036.23,1928.19 9004.83,1931.72 8973.50,1935.13 8951.16,1937.90 8924.91,1940.81 8915.31,1941.99 8900.49,1943.64 8882.22,1945.75 8864.94,1947.64 8845.42,1949.87 8830.39,1951.56 8814.51,1953.35 8797.65,1955.31 8781.07,1957.21 8764.92,1958.92 8745.45,1961.30 8726.61,1963.36 8708.12,1965.50 8672.23,1969.55 8653.33,1971.75 8638.00,1973.44 8617.61,1975.79 8599.29,1977.88 8578.70,1980.19 8557.03,1982.72 8539.18,1984.76 8521.02,1986.82 8501.83,1989.04 8476.82,1991.84 8452.17,1994.74 8433.86,1996.84 8418.67,1998.57 8396.17,2001.13 8382.31,2002.74 8368.52,2004.27 8350.02,2006.41 8334.39,2008.15 8315.69,2010.33 8297.52,2012.41 8280.32,2014.34 8263.42,2016.31 8245.53,2018.25 8230.61,2020.00 8219.96,2021.21 8204.48,2022.99 8186.00,2024.94 8167.70,2026.81 8150.32,2028.39 8133.09,2029.75 8113.74,2031.13 8095.06,2032.28 8072.73,2033.39 8053.69,2034.15 8037.02,2034.57 8024.27,2034.99 8012.77,2035.28 8000.00,2035.48 7986.54,2035.53 7973.87,2035.48 7958.75,2035.43 7943.80,2035.22 7928.49,2034.90 7913.86,2034.41 7902.68,2034.01 7889.21,2033.47 7877.26,2032.90 7863.94,2032.10 7853.76,2031.49 7843.79,2030.91 7832.22,2030.14 7822.70,2029.52 7804.00,2028.36 7785.14,2027.21 7764.45,2026.20 7752.95,2025.15 7743.81,2024.58 7733.58,2023.93 7723.52,2023.30 7712.69,2022.59 7699.03,2021.76 7687.23,2021.01 7679.67,2020.51 7670.77,2019.96 7661.39,2019.38"/>
        <lane id="21.0_2" index="2" speed="13.89" length="1539.81" width="3.66" shape="9225.51,1902.98 9144.78,1912.07 9125.99,1914.20 9105.39,1916.64 9076.75,1919.87 9035.81,1924.55 9004.43,1928.08 8973.08,1931.50 8950.74,1934.27 8924.48,1937.18 8914.88,1938.36 8900.07,1940.00 8881.81,1942.11 8864.53,1944.00 8845.00,1946.23 8829.98,1947.92 8814.09,1949.71 8797.23,1951.67 8780.66,1953.57 8764.51,1955.28 8745.02,1957.66 8726.21,1959.72 8707.71,1961.86 8671.82,1965.91 8652.91,1968.11 8637.59,1969.80 8617.19,1972.15 8598.88,1974.24 8578.28,1976.55 8556.61,1979.08 8538.77,1981.12 8520.60,1983.18 8501.41,1985.40 8476.41,1988.20 8451.75,1991.11 8433.45,1993.20 8418.26,1994.93 8395.75,1997.49 8381.89,1999.10 8368.10,2000.63 8349.60,2002.77 8333.98,2004.51 8315.27,2006.69 8297.11,2008.77 8279.90,2010.70 8263.01,2012.67 8245.12,2014.61 8230.19,2016.36 8219.54,2017.57 8204.08,2019.35 8185.63,2021.30 8167.35,2023.17 8150.01,2024.75 8132.82,2026.10 8113.50,2027.48 8094.86,2028.63 8072.56,2029.73 8053.57,2030.50 8036.91,2030.92 8024.17,2031.34 8012.70,2031.62 7999.96,2031.82 7986.54,2031.87 7973.88,2031.82 7958.78,2031.77 7943.86,2031.56 7928.59,2031.24 7913.99,2030.75 7902.82,2030.35 7889.37,2029.81 7877.46,2029.25 7864.16,2028.44 7853.98,2027.83 7844.02,2027.25 7832.46,2026.49 7822.93,2025.87 7804.23,2024.70 7785.34,2023.56 7764.70,2022.55 7753.23,2021.50 7744.04,2020.93 7733.81,2020.28 7723.76,2019.65 7712.92,2018.94 7699.25,2018.10 7687.47,2017.36 7679.90,2016.86 7670.99,2016.30 7661.62,2015.72"/>
        <lane id="21.0_3" index="3" speed="13.89" length="1539.81" width="3.66" shape="9225.10,1899.34 9144.37,1908.44 9125.57,1910.56 9104.97,1913.00 9076.33,1916.23 9035.40,1920.91 9004.03,1924.45 8972.66,1927.86 8950.31,1930.63 8924.06,1933.54 8914.46,1934.72 8899.66,1936.36 8881.41,1938.48 8864.12,1940.37 8844.59,1942.60 8829.58,1944.29 8813.68,1946.07 8796.81,1948.03 8780.26,1949.94 8764.09,1951.64 8744.60,1954.02 8725.80,1956.09 8707.29,1958.22 8671.40,1962.27 8652.50,1964.47 8637.18,1966.17 8616.78,1968.51 8598.47,1970.61 8577.87,1972.91 8556.19,1975.44 8538.35,1977.48 8520.19,1979.54 8501.00,1981.76 8475.99,1984.56 8451.33,1987.47 8433.03,1989.56 8417.84,1991.29 8395.34,1993.85 8381.48,1995.46 8367.69,1996.99 8349.19,1999.13 8333.56,2000.87 8314.85,2003.05 8296.70,2005.14 8279.49,2007.06 8262.61,2009.04 8244.71,2010.98 8229.77,2012.72 8219.13,2013.93 8203.67,2015.72 8185.25,2017.66 8167.00,2019.52 8149.70,2021.10 8132.54,2022.45 8113.25,2023.83 8094.66,2024.97 8072.40,2026.07 8053.45,2026.84 8036.81,2027.26 8024.06,2027.68 8012.62,2027.96 7999.93,2028.16 7986.54,2028.21 7973.89,2028.16 7958.81,2028.11 7943.92,2027.90 7928.69,2027.58 7914.11,2027.10 7902.96,2026.70 7889.53,2026.15 7877.66,2025.59 7864.38,2024.79 7854.20,2024.18 7844.25,2023.60 7832.70,2022.84 7823.16,2022.22 7804.45,2021.05 7785.54,2019.90 7764.96,2018.90 7753.51,2017.85 7744.27,2017.28 7734.05,2016.63 7723.99,2016.00 7713.15,2015.29 7699.48,2014.45 7687.70,2013.71 7680.14,2013.21 7671.22,2012.65 7661.84,2012.07"/>