<?xml version='1.0' encoding='utf-8'?>
<edges>
    <edge id="15.0" from="node_15_start" to="node_15_end" numLanes="6" speed="13.89" type="town" shape="779739.27,3297508.55 779732.77,3297508.15 779732.77,3297508.15 779718.57,3297507.23 779718.57,3297507.23 779713.72,3297506.93 779713.72,3297506.93 779709.39,3297506.66 779709.39,3297506.66 779683.19,3297505.05 779683.19,3297505.05 779643.70,3297502.63 779643.70,3297502.63 779616.06,3297500.86 779616.06,3297500.86 779594.36,3297499.49 779594.36,3297499.49 779579.43,3297498.57 779579.43,3297498.57 779562.54,3297497.47 779562.54,3297497.47 779544.02,3297496.34 779544.02,3297496.34 779518.35,3297494.68 779518.35,3297494.68 779486.58,3297492.75 779486.58,3297492.75 779456.94,3297490.84 779456.94,3297490.84 779423.19,3297488.78 779423.19,3297488.78 779394.89,3297486.99 779394.89,3297486.99 779371.84,3297485.52 779371.84,3297485.52 779335.84,3297483.22 779335.84,3297483.22 779313.44,3297481.71 779313.44,3297481.71 779297.84,3297480.66 779297.84,3297480.66 779258.90,3297477.77 779258.90,3297477.77 779229.40,3297475.42 779229.40,3297475.42 779216.08,3297474.33 779216.08,3297474.33 779168.29,3297470.20 779168.29,3297470.20 779145.21,3297468.15 779145.21,3297468.15 779130.95,3297466.72 779130.95,3297466.72 779114.11,3297465.09 779114.11,3297465.09 779090.60,3297462.83 779090.60,3297462.83 779074.65,3297461.25">
        <lane index="0" width="3.66" type="shoulder" disallow="all" />
        <lane index="1" width="3.66" />
        <lane index="2" width="3.66" />
        <lane index="3" width="3.66" />
        <lane index="4" width="3.66" />
        <lane index="5" width="3.66" type="shoulder" disallow="all" />
    </edge>
    <edge id="21.0" from="junction_63" to="j_merge_start_1" numLanes="5" speed="13.89" type="town" shape="781508.31,3297422.59 781506.18,3297422.83 781506.18,3297422.83 781487.37,3297424.96 781487.37,3297424.96 781466.77,3297427.40 781466.77,3297427.40 781438.14,3297430.63 781438.14,3297430.63 781397.21,3297435.31 781397.21,3297435.31 781365.85,3297438.84 781365.85,3297438.84 781334.45,3297442.26 781334.45,3297442.26 781312.10,3297445.03 781312.10,3297445.03 781285.85,3297447.94 781285.85,3297447.94 781276.25,3297449.12 781276.25,3297449.12 781261.47,3297450.76 781261.47,3297450.76 781243.22,3297452.87 781243.22,3297452.87 781225.94,3297454.76 781225.94,3297454.76 781206.40,3297456.99 781206.40,3297456.99 781191.39,3297458.68 781191.39,3297458.68 781175.48,3297460.47 781175.48,3297460.47 781158.61,3297462.43 781158.61,3297462.43 781142.09,3297464.33 781142.09,3297464.33 781125.90,3297466.04 781125.90,3297466.04 781106.40,3297468.42 781106.40,3297468.42 781087.61,3297470.48 781087.61,3297470.48 781069.10,3297472.62 781069.10,3297472.62 781033.21,3297476.67 781033.21,3297476.67 781014.31,3297478.87 781014.31,3297478.87 780998.99,3297480.56 780998.99,3297480.56 780978.58,3297482.91 780978.58,3297482.91 780960.28,3297485.00 780960.28,3297485.00 780939.67,3297487.31 780939.67,3297487.31 780917.99,3297489.84 780917.99,3297489.84 780900.16,3297491.88 780900.16,3297491.88 780881.99,3297493.94 780881.99,3297493.94 780862.81,3297496.16 780862.81,3297496.16 780837.79,3297498.96 780837.79,3297498.96 780813.12,3297501.87 780813.12,3297501.87 780794.84,3297503.96 780794.84,3297503.96 780779.65,3297505.69 780779.65,3297505.69 780757.14,3297508.25 780757.14,3297508.25 780743.29,3297509.86 780743.29,3297509.86 780729.50,3297511.39 780729.50,3297511.39 780711.00,3297513.53 780711.00,3297513.53 780695.37,3297515.27 780695.37,3297515.27 780676.65,3297517.45 780676.65,3297517.45 780658.51,3297519.53 780658.51,3297519.53 780641.29,3297521.46 780641.29,3297521.46 780624.42,3297523.43 780624.42,3297523.43 780606.52,3297525.37 780606.52,3297525.37 780591.57,3297527.12 780591.57,3297527.12 780580.93,3297528.33 780580.93,3297528.33 780565.50,3297530.11 780565.50,3297530.11 780547.11,3297532.05 780547.11,3297532.05 780528.90,3297533.91 780528.90,3297533.91 780511.66,3297535.48 780511.66,3297535.48 780494.56,3297536.83 780494.56,3297536.83 780475.32,3297538.20 780475.32,3297538.20 780456.78,3297539.34 780456.78,3297539.34 780434.58,3297540.44 780434.58,3297540.44 780415.70,3297541.20 780415.70,3297541.20 780399.08,3297541.62 780399.08,3297541.62 780386.33,3297542.04 780386.33,3297542.04 780374.94,3297542.32 780374.94,3297542.32 780362.30,3297542.52 780362.30,3297542.52 780348.97,3297542.57 780348.97,3297542.57 780336.34,3297542.52 780336.34,3297542.52 780321.29,3297542.47 780321.29,3297542.47 780306.45,3297542.26 780306.45,3297542.26 780291.27,3297541.94 780291.27,3297541.94 780276.73,3297541.46 780276.73,3297541.46 780265.60,3297541.06 780265.60,3297541.06 780252.20,3297540.52 780252.20,3297540.52 780240.38,3297539.96 780240.38,3297539.96 780227.14,3297539.16 780227.14,3297539.16 780216.95,3297538.55 780216.95,3297538.55 780207.02,3297537.97 780207.02,3297537.97 780195.49,3297537.21 780195.49,3297537.21 780185.94,3297536.59 780185.94,3297536.59 780167.22,3297535.42 780167.22,3297535.42 780148.27,3297534.27 780148.27,3297534.27 780127.77,3297533.27 780127.77,3297533.27 780116.36,3297532.23 780116.36,3297532.23 780107.04,3297531.65 780107.04,3297531.65 780096.82,3297531.00 780096.82,3297531.00 780086.77,3297530.37 780086.77,3297530.37 780075.93,3297529.66 780075.93,3297529.66 780062.25,3297528.82 780062.25,3297528.82 780050.48,3297528.08 780050.48,3297528.08 780042.92,3297527.58 780042.92,3297527.58 780033.99,3297527.02 780033.99,3297527.02 780024.61,3297526.44">
        <lane index="0" width="3.66" type="shoulder" disallow="all" />
        <lane index="1" width="3.66" />
        <lane index="2" width="3.66" />
        <lane index="3" width="3.66" />
        <lane index="4" width="3.66" type="shoulder" disallow="all" />
    </edge>
    <edge id="232.0" from="j_merge_end_18" to="node_232_end" numLanes="5" speed="13.89" type="town" shape="773705.43,3295535.07 773694.90,3295533.67 773694.90,3295533.67 773667.50,3295530.45 773667.50,3295530.45 773632.37,3295526.95 773632.37,3295526.95 773623.39,3295526.15 773623.39,3295526.15 773607.49,3295524.87 773607.49,3295524.87 773586.11,3295523.41 773586.11,3295523.41 773567.94,3295522.33 773567.94,3295522.33 773549.90,3295521.52 773549.90,3295521.52 773530.71,3295520.85 773530.71,3295520.85 773511.81,3295520.29 773511.81,3295520.29 773493.03,3295519.94 773493.03,3295519.94 773472.49,3295519.85 773472.49,3295519.85 773450.66,3295520.05 773450.66,3295520.05 773432.58,3295520.39 773432.58,3295520.39 773416.86,3295520.85 773416.86,3295520.85 773400.84,3295521.46 773400.84,3295521.46 773389.62,3295521.99 773389.62,3295521.99 773360.24,3295523.64 773360.24,3295523.64 773332.25,3295525.69 773332.25,3295525.69 773305.67,3295528.07 773305.67,3295528.07 773285.29,3295530.23 773285.29,3295530.23 773242.87,3295535.53 773242.87,3295535.53 773219.53,3295538.76">
        <lane index="0" width="3.66" type="shoulder" disallow="all" />
        <lane index="1" width="3.66" />
        <lane index="2" width="3.66" />
        <lane index="3" width="3.66" />
        <lane index="4" width="3.66" type="shoulder" disallow="all" />
    </edge>
    <edge id="241.0" from="j_merge_end_19" to="node_241_end" numLanes="5" speed="13.89" type="town" shape="777168.59,3297144.59 777156.45,3297138.12 777156.45,3297138.12 777136.19,3297126.78 777136.19,3297126.78 777110.18,3297111.53 777110.18,3297111.53 777084.42,3297095.39 777084.42,3297095.39 777064.27,3297082.07 777064.27,3297082.07 777041.79,3297066.58 777041.79,3297066.58 777021.79,3297052.08 777021.79,3297052.08 777002.22,3297037.28 777002.22,3297037.28 776989.16,3297027.07 776989.16,3297027.07 776967.56,3297009.47 776967.56,3297009.47 776941.96,3296987.52 776941.96,3296987.52 776917.70,3296965.46 776917.70,3296965.46 776897.18,3296945.56">
        <lane index="0" width="3.66" type="shoulder" disallow="all" />
        <lane index="1" width="3.66" />
        <lane index="2" width="3.66" />
        <lane index="3" width="3.66" />
        <lane index="4" width="3.66" type="shoulder" disallow="all" />
    </edge>
    <edge id="25.0" from="node_25_start" to="j_merge_start_1" numLanes="1" speed="13.89" type="town" shape="780296.60,3297569.11 780289.86,3297568.97 780289.86,3297568.97 780281.26,3297568.69 780281.26,3297568.69 780269.46,3297568.30 780269.46,3297568.30 780261.26,3297567.88 780261.26,3297567.88 780247.54,3297567.28 780247.54,3297567.28 780235.20,3297566.61 780235.20,3297566.61 780222.43,3297565.78 780222.43,3297565.78 780208.22,3297564.87 780208.22,3297564.87 780195.32,3297563.86 780195.32,3297563.86 780182.09,3297562.71 780182.09,3297562.71 780173.64,3297561.98 780173.64,3297561.98 780162.64,3297561.00 780162.64,3297561.00 780152.15,3297559.99 780152.15,3297559.99 780141.11,3297558.85 780141.11,3297558.85 780130.31,3297557.81 780130.31,3297557.81 780119.56,3297556.76 780119.56,3297556.76 780111.53,3297556.01 780111.53,3297556.01 780101.04,3297554.92 780101.04,3297554.92 780089.99,3297553.89 780089.99,3297553.89 780078.32,3297552.68 780078.32,3297552.68 780067.80,3297551.60 780067.80,3297551.60 780058.43,3297550.70 780058.43,3297550.70 780046.03,3297549.47 780046.03,3297549.47 780032.15,3297548.15 780032.15,3297548.15 780024.61,3297547.31">
        <lane index="0" width="3.66" />
    </edge>
    <edge id="27.0" from="node_27_start" to="node_27_end" numLanes="5" speed="13.89" type="town" shape="774774.01,3295888.89 774746.97,3295878.71 774746.97,3295878.71 774716.54,3295867.33 774716.54,3295867.33 774676.83,3295852.32 774676.83,3295852.32 774644.54,3295840.22 774644.54,3295840.22 774606.02,3295825.70 774606.02,3295825.70 774572.27,3295812.99 774572.27,3295812.99 774536.64,3295799.56 774536.64,3295799.56 774503.43,3295787.06 774503.43,3295787.06 774463.41,3295771.98 774463.41,3295771.98 774432.66,3295760.48 774432.66,3295760.48 774394.06,3295745.96 774394.06,3295745.96 774358.27,3295732.41 774358.27,3295732.41 774312.88,3295715.34 774312.88,3295715.34 774267.76,3295698.32 774267.76,3295698.32 774220.01,3295680.38 774220.01,3295680.38 774183.71,3295666.69 774183.71,3295666.69 774149.96,3295654.11 774149.96,3295654.11 774131.15,3295646.90 774131.15,3295646.90 774131.12,3295646.66 774131.12,3295646.66 774103.85,3295636.41 774103.85,3295636.41 774085.36,3295629.55">
        <lane index="0" width="3.66" type="shoulder" disallow="all" />
        <lane index="1" width="3.66" />
        <lane index="2" width="3.66" />
        <lane index="3" width="3.66" />
        <lane index="4" width="3.66" type="shoulder" disallow="all" />
    </edge>
    <edge id="28.0" from="node_15_end" to="junction_65" numLanes="6" speed="13.89" type="town" shape="779074.65,3297461.25 779071.44,3297460.93 779071.44,3297460.93 779054.11,3297459.23 779054.11,3297459.23 779032.59,3297457.14 779032.59,3297457.14 779010.83,3297455.05 779010.83,3297455.05 778977.37,3297451.75 778977.37,3297451.75 778969.43,3297451.02">
        <lane index="0" width="3.66" type="shoulder" disallow="all" />
        <lane index="1" width="3.66" />
        <lane index="2" width="3.66" />
        <lane index="3" width="3.66" />
        <lane index="4" width="3.66" />
        <lane index="5" width="3.66" type="shoulder" disallow="all" />
    </edge>
    <edge id="30.0" from="node_30_start" to="node_30_end" numLanes="6" speed="13.89" type="town" shape="775655.87,3296220.72 775619.41,3296206.98 775619.41,3296206.98 775584.95,3296194.06 775584.95,3296194.06 775538.01,3296176.32 775538.01,3296176.32 775503.10,3296163.29 775503.10,3296163.29 775473.08,3296151.92 775473.08,3296151.92 775450.35,3296143.40 775450.35,3296143.40 775425.26,3296134.17 775425.26,3296134.17 775402.38,3296125.32 775402.38,3296125.32 775375.39,3296115.29 775375.39,3296115.29 775342.79,3296103.02">
        <lane index="0" width="3.66" type="shoulder" disallow="all" />
        <lane index="1" width="3.66" />
        <lane index="2" width="3.66" />
        <lane index="3" width="3.66" />
        <lane index="4" width="3.66" />
        <lane index="5" width="3.66" type="shoulder" disallow="all" />
    </edge>
    <edge id="32.0" from="node_32_start" to="junction_66" numLanes="4" speed="13.89" type="town" shape="775256.04,3296070.22 775245.06,3296066.22 775245.06,3296066.22 775234.50,3296062.18 775234.50,3296062.18 775219.69,3296056.69 775219.69,3296056.69 775207.95,3296052.24 775207.95,3296052.24 775194.10,3296047.05 775194.10,3296047.05 775174.62,3296039.75 775174.62,3296039.75 775154.81,3296032.32 775154.81,3296032.32 775133.65,3296024.31 775133.65,3296024.31 775118.92,3296018.86 775118.92,3296018.86 775108.93,3296015.09">
        <lane index="0" width="3.66" />
        <lane index="1" width="3.66" />
        <lane index="2" width="3.66" />
        <lane index="3" width="3.66" type="shoulder" disallow="all" />
    </edge>
    <edge id="33.0" from="junction_4" to="node_33_end" numLanes="6" speed="13.89" type="town" shape="775745.74,3296254.67 775721.36,3296245.53 775721.36,3296245.53 775719.10,3296244.68">
        <lane index="0" width="3.66" type="shoulder" disallow="all" />
        <lane index="1" width="3.66" />
        <lane index="2" width="3.66" />
        <lane index="3" width="3.66" />
        <lane index="4" width="3.66" />
        <lane index="5" width="3.66" type="shoulder" disallow="all" />
    </edge>
    <edge id="34.0" from="node_34_start" to="j_merge_start_19" numLanes="4" speed="13.89" type="town" shape="777532.93,3297277.52 777503.01,3297268.93 777503.01,3297268.93 777466.63,3297258.18 777466.63,3297258.18 777457.72,3297255.44">
        <lane index="0" width="3.66" />
        <lane index="1" width="3.66" />
        <lane index="2" width="3.66" />
        <lane index="3" width="3.66" type="shoulder" disallow="all" />
    </edge>
    <edge id="35.0" from="node_241_end" to="node_35_end" numLanes="5" speed="13.89" type="town" shape="776897.18,3296945.56 776895.86,3296944.27 776895.86,3296944.27 776872.39,3296921.44 776872.39,3296921.44 776851.18,3296900.77 776851.18,3296900.77 776835.37,3296885.38 776835.37,3296885.38 776819.92,3296870.26 776819.92,3296870.26 776802.08,3296852.89 776802.08,3296852.89 776785.09,3296836.35 776785.09,3296836.35 776764.24,3296815.96 776764.24,3296815.96 776743.13,3296795.17 776743.13,3296795.17 776742.96,3296795.01">
        <lane index="0" width="3.66" type="shoulder" disallow="all" />
        <lane index="1" width="3.66" />
        <lane index="2" width="3.66" />
        <lane index="3" width="3.66" />
        <lane index="4" width="3.66" type="shoulder" disallow="all" />
    </edge>
    <edge id="37.0" from="node_30_end" to="junction_67" numLanes="6" speed="13.89" type="town" shape="775342.79,3296103.02 775326.82,3296096.92 775326.82,3296096.92 775314.92,3296092.48 775314.92,3296092.48 775299.63,3296086.78 775299.63,3296086.78 775281.02,3296079.87 775281.02,3296079.87 775256.04,3296070.22">
        <lane index="0" width="3.66" type="shoulder" disallow="all" />
        <lane index="1" width="3.66" />
        <lane index="2" width="3.66" />
        <lane index="3" width="3.66" />
        <lane index="4" width="3.66" />
        <lane index="5" width="3.66" type="shoulder" disallow="all" />
    </edge>
    <edge id="38.0" from="junction_66" to="node_27_start" numLanes="4" speed="13.89" type="town" shape="774926.81,3295946.62 774907.97,3295939.40 774907.97,3295939.40 774888.06,3295931.79 774888.06,3295931.79 774871.17,3295925.44 774871.17,3295925.44 774856.12,3295919.81 774856.12,3295919.81 774844.21,3295915.32 774844.21,3295915.32 774827.70,3295909.14 774827.70,3295909.14 774807.13,3295901.42 774807.13,3295901.42 774783.41,3295892.44 774783.41,3295892.44 774774.01,3295888.89">
        <lane index="0" width="3.66" />
        <lane index="1" width="3.66" />
        <lane index="2" width="3.66" />
        <lane index="3" width="3.66" type="shoulder" disallow="all" />
    </edge>
    <edge id="39.0" from="node_35_end" to="node_39_end" numLanes="5" speed="13.89" type="town" shape="776742.96,3296795.01 776726.90,3296779.45 776726.90,3296779.45 776710.96,3296763.84 776710.96,3296763.84 776707.29,3296760.21">
        <lane index="0" width="3.66" type="shoulder" disallow="all" />
        <lane index="1" width="3.66" />
        <lane index="2" width="3.66" />
        <lane index="3" width="3.66" />
        <lane index="4" width="3.66" type="shoulder" disallow="all" />
    </edge>
    <edge id="40.0" from="node_39_end" to="junction_4" numLanes="5" speed="13.89" type="town" shape="776707.29,3296760.21 776685.95,3296739.43 776685.95,3296739.43 776668.82,3296722.70 776668.82,3296722.70 776649.00,3296703.39 776649.00,3296703.39 776635.96,3296690.91 776635.96,3296690.91 776624.85,3296680.58 776624.85,3296680.58 776603.40,3296661.25 776603.40,3296661.25 776589.29,3296649.06 776589.29,3296649.06 776569.64,3296632.65 776569.64,3296632.65 776556.30,3296622.00 776556.30,3296622.00 776537.90,3296607.67 776537.90,3296607.67 776519.89,3296594.27 776519.89,3296594.27 776502.05,3296581.40 776502.05,3296581.40 776488.59,3296571.97 776488.59,3296571.97 776472.08,3296560.82 776472.08,3296560.82 776451.33,3296547.43 776451.33,3296547.43 776433.75,3296536.47 776433.75,3296536.47 776419.20,3296527.68 776419.20,3296527.68 776396.63,3296514.70 776396.63,3296514.70 776382.59,3296506.96 776382.59,3296506.96 776368.71,3296499.49 776368.71,3296499.49 776347.29,3296488.45 776347.29,3296488.45 776326.37,3296478.23 776326.37,3296478.23 776303.09,3296467.32 776303.09,3296467.32 776281.44,3296457.75 776281.44,3296457.75 776262.48,3296449.72 776262.48,3296449.72 776249.48,3296444.44 776249.48,3296444.44 776232.53,3296437.91 776232.53,3296437.91 776213.64,3296430.71 776213.64,3296430.71 776186.12,3296420.37 776186.12,3296420.37 776165.20,3296412.51 776165.20,3296412.51 776144.12,3296404.51 776144.12,3296404.51 776123.92,3296396.99 776123.92,3296396.99 776108.24,3296391.11 776108.24,3296391.11 776094.85,3296386.09 776094.85,3296386.09 776078.33,3296379.84 776078.33,3296379.84 776059.20,3296372.63 776059.20,3296372.63 776042.27,3296366.30 776042.27,3296366.30 776023.16,3296359.11 776023.16,3296359.11 776004.71,3296352.12 776004.71,3296352.12 775990.36,3296346.72 775990.36,3296346.72 775972.39,3296339.94 775972.39,3296339.94 775956.43,3296333.98 775956.43,3296333.98 775940.32,3296327.90 775940.32,3296327.90 775925.39,3296322.29 775925.39,3296322.29 775911.56,3296317.07 775911.56,3296317.07 775895.83,3296311.17 775895.83,3296311.17 775880.27,3296305.29 775880.27,3296305.29 775864.95,3296299.51 775864.95,3296299.51 775847.82,3296293.09 775847.82,3296293.09 775834.66,3296288.13 775834.66,3296288.13 775821.57,3296283.24">
        <lane index="0" width="3.66" type="shoulder" disallow="all" />
        <lane index="1" width="3.66" />
        <lane index="2" width="3.66" />
        <lane index="3" width="3.66" />
        <lane index="4" width="3.66" type="shoulder" disallow="all" />
    </edge>
    <edge id="41.0" from="junction_65" to="node_41_end" numLanes="1" speed="13.89" type="town" shape="778827.20,3297458.63 778814.61,3297458.35 778814.61,3297458.35 778799.71,3297458.00 778799.71,3297458.00 778779.25,3297457.67 778779.25,3297457.67 778758.42,3297457.55 778758.42,3297457.55 778720.10,3297457.54 778720.10,3297457.54 778681.59,3297457.64">
        <lane index="0" width="3.66" />
    </edge>
    <edge id="42.0" from="node_42_start" to="j_merge_start_19" numLanes="1" speed="13.89" type="town" shape="777529.78,3297298.05 777514.41,3297292.33 777514.41,3297292.33 777495.55,3297285.26 777495.55,3297285.26 777464.10,3297273.57 777464.10,3297273.57 777453.73,3297269.67">
        <lane index="0" width="3.66" />
    </edge>
    <edge id="43.0" from="node_33_end" to="node_30_start" numLanes="6" speed="13.89" type="town" shape="775719.10,3296244.68 775699.20,3296237.14 775699.20,3296237.14 775676.69,3296228.68 775676.69,3296228.68 775655.87,3296220.72">
        <lane index="0" width="3.66" type="shoulder" disallow="all" />
        <lane index="1" width="3.66" />
        <lane index="2" width="3.66" />
        <lane index="3" width="3.66" />
        <lane index="4" width="3.66" />
        <lane index="5" width="3.66" type="shoulder" disallow="all" />
    </edge>
    <edge id="45.0" from="junction_65" to="node_34_start" numLanes="5" speed="13.89" type="town" shape="778829.37,3297438.23 778793.08,3297435.39 778793.08,3297435.39 778759.29,3297432.76 778759.29,3297432.76 778717.73,3297429.95 778717.73,3297429.95 778667.92,3297426.78 778667.92,3297426.78 778629.44,3297424.33 778629.44,3297424.33 778600.93,3297422.57 778600.93,3297422.57 778564.67,3297420.22 778564.67,3297420.22 778527.84,3297418.05 778527.84,3297418.05 778473.73,3297414.59 778473.73,3297414.59 778428.66,3297411.76 778428.66,3297411.76 778360.87,3297407.47 778360.87,3297407.47 778295.58,3297403.39 778295.58,3297403.39 778233.44,3297399.27 778233.44,3297399.27 778174.90,3297394.73 778174.90,3297394.73 778121.73,3297389.61 778121.73,3297389.61 778080.73,3297384.97 778080.73,3297384.97 778011.96,3297376.51 778011.96,3297376.51 777966.12,3297369.97 777966.12,3297369.97 777928.26,3297364.12 777928.26,3297364.12 777885.32,3297357.06 777885.32,3297357.06 777842.71,3297349.41 777842.71,3297349.41 777789.28,3297339.15 777789.28,3297339.15 777733.92,3297327.54 777733.92,3297327.54 777687.30,3297317.02 777687.30,3297317.02 777635.53,3297304.63 777635.53,3297304.63 777584.01,3297291.44 777584.01,3297291.44 777532.93,3297277.52">
        <lane index="0" width="3.66" type="shoulder" disallow="all" />
        <lane index="1" width="3.66" />
        <lane index="2" width="3.66" />
        <lane index="3" width="3.66" />
        <lane index="4" width="3.66" type="shoulder" disallow="all" />
    </edge>
    <edge id="46.0" from="node_32_start" to="node_46_end" numLanes="1" speed="13.89" type="town" shape="775250.58,3296084.14 775247.65,3296083.28 775247.65,3296083.28 775243.92,3296082.09 775243.92,3296082.09 775239.34,3296080.60 775239.34,3296080.60 775232.20,3296078.28 775232.20,3296078.28 775224.02,3296075.62 775224.02,3296075.62 775206.65,3296070.12 775206.65,3296070.12 775201.30,3296068.41 775201.30,3296068.41 775191.76,3296065.32 775191.76,3296065.32 775177.67,3296060.66 775177.67,3296060.66 775168.56,3296057.75 775168.56,3296057.75 775159.04,3296054.60 775159.04,3296054.60 775146.65,3296050.33 775146.65,3296050.33 775136.83,3296046.91 775136.83,3296046.91 775126.10,3296043.18 775126.10,3296043.18 775110.53,3296037.64 775110.53,3296037.64 775101.55,3296034.32">
        <lane index="0" width="3.66" />
    </edge>
    <edge id="47.0" from="node_47_start" to="node_42_start" numLanes="1" speed="13.89" type="town" shape="777814.02,3297384.06 777759.84,3297372.71 777759.84,3297372.71 777734.16,3297366.88 777734.16,3297366.88 777706.97,3297360.18 777706.97,3297360.18 777680.05,3297352.29 777680.05,3297352.29 777654.76,3297343.97 777654.76,3297343.97 777603.21,3297325.17 777603.21,3297325.17 777577.35,3297315.73 777577.35,3297315.73 777548.69,3297305.10 777548.69,3297305.10 777534.51,3297299.86 777534.51,3297299.86 777529.78,3297298.05">
        <lane index="0" width="3.66" />
    </edge>
    <edge id="48.0" from="junction_67" to="node_48_end" numLanes="1" speed="13.89" type="town" shape="775101.55,3296034.32 775086.96,3296028.88 775086.96,3296028.88 775073.90,3296023.93 775073.90,3296023.93 775063.67,3296020.05 775063.67,3296020.05 775044.62,3296012.99 775044.62,3296012.99 775040.80,3296011.55">
        <lane index="0" width="3.66" />
    </edge>
    <edge id="49.0" from="junction_66" to="node_49_end" numLanes="1" speed="13.89" type="town" shape="774920.85,3295959.89 774913.79,3295957.56 774913.79,3295957.56 774900.12,3295953.13 774900.12,3295953.13 774877.65,3295946.05 774877.65,3295946.05 774858.42,3295939.93 774858.42,3295939.93 774834.83,3295932.51 774834.83,3295932.51 774810.78,3295924.91 774810.78,3295924.91 774789.53,3295918.18 774789.53,3295918.18 774765.94,3295910.69">
        <lane index="0" width="3.66" />
    </edge>
    <edge id="51.0" from="node_49_end" to="node_51_end" numLanes="1" speed="13.89" type="town" shape="774765.94,3295910.69 774751.47,3295906.22 774751.47,3295906.22 774737.85,3295902.22 774737.85,3295902.22 774725.33,3295898.73 774725.33,3295898.73 774712.20,3295895.25 774712.20,3295895.25 774696.50,3295891.30 774696.50,3295891.30 774680.39,3295887.35 774680.39,3295887.35 774665.98,3295883.78 774665.98,3295883.78 774648.82,3295879.55 774648.82,3295879.55 774645.90,3295878.78">
        <lane index="0" width="3.66" />
    </edge>
    <edge id="52.0" from="node_52_start" to="junction_4" numLanes="1" speed="13.89" type="town" shape="775935.04,3296368.44 775897.98,3296348.22 775897.98,3296348.22 775878.15,3296337.36 775878.15,3296337.36 775847.64,3296320.79 775847.64,3296320.79 775828.21,3296310.36 775828.21,3296310.36 775811.47,3296301.73">
        <lane index="0" width="3.66" />
    </edge>
    <edge id="58.0" from="node_58_start" to="node_58_end" numLanes="5" speed="13.89" type="town" shape="772701.04,3295680.01 772686.25,3295684.73 772686.25,3295684.73 772671.17,3295689.46 772671.17,3295689.46 772654.23,3295694.94 772654.23,3295694.94 772649.19,3295696.53 772649.19,3295696.53 772635.43,3295700.87 772635.43,3295700.87 772619.16,3295706.02 772619.16,3295706.02 772586.19,3295716.52 772586.19,3295716.52 772562.92,3295723.84 772562.92,3295723.84 772438.61,3295763.30 772438.61,3295763.30 772362.43,3295787.36">
        <lane index="0" width="3.66" type="shoulder" disallow="all" />
        <lane index="1" width="3.66" />
        <lane index="2" width="3.66" />
        <lane index="3" width="3.66" />
        <lane index="4" width="3.66" type="shoulder" disallow="all" />
    </edge>
    <edge id="61.0" from="node_61_start" to="node_61_end" numLanes="1" speed="13.89" type="town" shape="774181.32,3295703.22 774156.52,3295689.78 774156.52,3295689.78 774113.93,3295666.95 774113.93,3295666.95 774102.04,3295660.91 774102.04,3295660.91 774094.42,3295657.05 774094.42,3295657.05 774086.25,3295653.03 774086.25,3295653.03 774078.03,3295649.14">
        <lane index="0" width="3.66" />
    </edge>
    <edge id="63.0" from="node_232_end" to="junction_68" numLanes="5" speed="13.89" type="town" shape="773219.53,3295538.76 773215.10,3295539.37 773215.10,3295539.37 773190.08,3295543.34 773190.08,3295543.34 773157.59,3295549.08 773157.59,3295549.08 773134.68,3295553.52 773134.68,3295553.52 773102.05,3295560.48 773102.05,3295560.48 773084.69,3295564.21 773084.69,3295564.21 773055.79,3295571.13 773055.79,3295571.13 773029.84,3295577.77 773029.84,3295577.77 772998.78,3295586.31 772998.78,3295586.31 772970.33,3295594.65 772970.33,3295594.65 772941.60,3295603.60 772941.60,3295603.60 772917.16,3295611.31 772917.16,3295611.31 772887.54,3295620.69 772887.54,3295620.69 772849.58,3295632.73">
        <lane index="0" width="3.66" type="shoulder" disallow="all" />
        <lane index="1" width="3.66" />
        <lane index="2" width="3.66" />
        <lane index="3" width="3.66" />
        <lane index="4" width="3.66" type="shoulder" disallow="all" />
    </edge>
    <edge id="68.0" from="junction_68" to="node_58_start" numLanes="4" speed="13.89" type="town" shape="772785.28,3295653.34 772701.04,3295680.01">
        <lane index="0" width="3.66" />
        <lane index="1" width="3.66" />
        <lane index="2" width="3.66" />
        <lane index="3" width="3.66" type="shoulder" disallow="all" />
    </edge>
    <edge id="70.0" from="node_61_end" to="j_merge_start_18" numLanes="1" speed="13.89" type="town" shape="774078.03,3295649.14 774062.38,3295641.84 774062.38,3295641.84 774044.08,3295633.91 774044.08,3295633.91 774029.58,3295627.97 774029.58,3295627.97 774018.11,3295623.55 774018.11,3295623.55 774007.95,3295619.98 774007.95,3295619.98 773997.44,3295616.43 773997.44,3295616.43 773985.37,3295612.36 773985.37,3295612.36 773973.94,3295608.68 773973.94,3295608.68 773962.48,3295605.07 773962.48,3295605.07 773949.83,3295601.14 773949.83,3295601.14 773939.69,3295598.18">
        <lane index="0" width="3.66" />
    </edge>
    <edge id="76.0" from="node_27_end" to="j_merge_start_18" numLanes="4" speed="13.89" type="town" shape="774085.36,3295629.55 774066.35,3295622.51 774066.35,3295622.51 774046.64,3295615.55 774046.64,3295615.55 774021.20,3295606.99 774021.20,3295606.99 773986.75,3295596.07 773986.75,3295596.07 773967.32,3295590.26 773967.32,3295590.26 773951.42,3295585.65 773951.42,3295585.65 773943.50,3295583.59">
        <lane index="0" width="3.66" />
        <lane index="1" width="3.66" />
        <lane index="2" width="3.66" />
        <lane index="3" width="3.66" type="shoulder" disallow="all" />
    </edge>
    <edge id="77.0" from="junction_68" to="node_77_end" numLanes="1" speed="13.89" type="town" shape="772790.14,3295667.55 772766.32,3295676.72 772766.32,3295676.72 772719.30,3295695.22 772719.30,3295695.22 772706.87,3295700.14">
        <lane index="0" width="3.66" />
    </edge>
    <edge id="79.0" from="node_77_end" to="node_79_end" numLanes="1" speed="13.89" type="town" shape="772706.87,3295700.14 772687.24,3295707.90 772687.24,3295707.90 772655.69,3295720.36 772655.69,3295720.36 772582.11,3295749.49 772582.11,3295749.49 772500.66,3295781.67">
        <lane index="0" width="3.66" />
    </edge>
    <edge id="8.0" from="j_merge_end_1" to="node_15_start" numLanes="6" speed="13.89" type="town" shape="779839.52,3297514.84 779831.15,3297514.29 779831.15,3297514.29 779820.99,3297513.67 779820.99,3297513.67 779813.61,3297513.21 779813.61,3297513.21 779806.19,3297512.73 779806.19,3297512.73 779797.23,3297512.13 779797.23,3297512.13 779787.65,3297511.67 779787.65,3297511.67 779772.50,3297510.66 779772.50,3297510.66 779764.20,3297510.07 779764.20,3297510.07 779748.77,3297509.14 779748.77,3297509.14 779739.27,3297508.55">
        <lane index="0" width="3.66" type="shoulder" disallow="all" />
        <lane index="1" width="3.66" />
        <lane index="2" width="3.66" />
        <lane index="3" width="3.66" />
        <lane index="4" width="3.66" />
        <lane index="5" width="3.66" type="shoulder" disallow="all" />