<?xml version='1.0' encoding='utf-8'?>
<nodes>
    <node id="node_15_start" x="779739.2734830077" y="3297508.550755592" type="priority" />
    <node id="node_15_end" x="779074.6526450601" y="3297461.2468534587" type="priority" />
    <node id="node_232_end" x="773219.528101049" y="3295538.7615216994" type="priority" />
    <node id="node_241_end" x="776897.176384903" y="3296945.5554362154" type="priority" />
    <node id="node_25_start" x="780296.5994776685" y="3297569.111236818" type="priority" />
    <node id="node_27_start" x="774774.0102500039" y="3295888.8860214227" type="priority" />
    <node id="node_27_end" x="774085.3576214835" y="3295629.554826542" type="priority" />
    <node id="node_30_start" x="775655.8746068059" y="3296220.717479836" type="priority" />
    <node id="node_30_end" x="775342.7908800655" y="3296103.0179740367" type="priority" />
    <node id="node_32_start" x="775256.0424322471" y="3296070.2236883375" type="priority" />
    <node id="node_33_end" x="775719.1019833155" y="3296244.67970541" type="priority" />
    <node id="node_34_start" x="777532.9300915669" y="3297277.518287793" type="priority" />
    <node id="node_35_end" x="776742.9627036536" y="3296795.0077634933" type="priority" />
    <node id="node_39_end" x="776707.2933157275" y="3296760.207835757" type="priority" />
    <node id="node_41_end" x="778681.5887043136" y="3297457.641202071" type="priority" />
    <node id="node_42_start" x="777529.7803891472" y="3297298.047742273" type="priority" />
    <node id="node_46_start" x="775250.5757285417" y="3296084.138345206" type="priority" />
    <node id="node_46_end" x="775101.5484715109" y="3296034.3188050142" type="priority" />
    <node id="node_47_start" x="777814.0209031792" y="3297384.0626595085" type="priority" />
    <node id="node_48_end" x="775040.7993432216" y="3296011.5526239583" type="priority" />
    <node id="node_49_end" x="774765.935516703" y="3295910.690523113" type="priority" />
    <node id="node_51_end" x="774645.9017005571" y="3295878.775467069" type="priority" />
    <node id="node_52_start" x="775935.0366022332" y="3296368.441485604" type="priority" />
    <node id="node_58_start" x="772701.044312669" y="3295680.0115609006" type="priority" />
    <node id="node_58_end" x="772362.4287145797" y="3295787.364947025" type="priority" />
    <node id="node_61_start" x="774181.3219427092" y="3295703.220254912" type="priority" />
    <node id="node_61_end" x="774078.034004203" y="3295649.135844497" type="priority" />
    <node id="node_77_end" x="772706.871861059" y="3295700.13749339" type="priority" />
    <node id="node_79_end" x="772500.6560167755" y="3295781.665386784" type="priority" />
    <node id="node_73_end" x="772233.2351645888" y="3295828.3188444264" type="priority" />
    <node id="node_3_start" x="781759.0402068994" y="3297393.8855463667" type="priority" />
    <node id="junction_70" x="0.0" y="0.0" type="priority" />
    <node id="junction_2" x="0.0" y="0.0" type="priority" />
    <node id="junction_6" x="0.0" y="0.0" type="priority" />
    <node id="junction_9" x="0.0" y="0.0" type="priority" />
    <node id="junction_64" x="0.0" y="0.0" type="priority" />
    <node id="junction_10" x="0.0" y="0.0" type="priority" />
    <node id="junction_73" x="0.0" y="0.0" type="priority" />
    <node id="junction_11" x="0.0" y="0.0" type="priority" />
    <node id="junction_74" x="0.0" y="0.0" type="priority" />
    <node id="junction_77" x="0.0" y="0.0" type="priority" />
    <node id="junction_75" x="0.0" y="0.0" type="priority" />
    <node id="junction_3" x="0.0" y="0.0" type="priority" />
    <node id="junction_16" x="0.0" y="0.0" type="priority" />
    <node id="junction_78" x="0.0" y="0.0" type="priority" />
    <node id="junction_79" x="0.0" y="0.0" type="priority" />
    <node id="junction_17" x="0.0" y="0.0" type="priority" />
    <node id="junction_76" x="0.0" y="0.0" type="priority" />
    <node id="junction_12" x="0.0" y="0.0" type="priority" />
    <node id="junction_14" x="0.0" y="0.0" type="priority" />
    <node id="junction_84" x="0.0" y="0.0" type="priority" />
    <node id="junction_85" x="0.0" y="0.0" type="priority" />
    <node id="junction_55" x="0.0" y="0.0" type="priority" />
    <node id="junction_86" x="0.0" y="0.0" type="priority" />
    <node id="junction_81" x="0.0" y="0.0" type="priority" />
    <node id="junction_21" x="0.0" y="0.0" type="priority" />
    <node id="junction_82" x="0.0" y="0.0" type="priority" />
    <node id="junction_22" x="0.0" y="0.0" type="priority" />
    <node id="junction_80" x="0.0" y="0.0" type="priority" />
    <node id="junction_20" x="0.0" y="0.0" type="priority" />
    <node id="junction_23" x="0.0" y="0.0" type="priority" />
    <node id="junction_83" x="0.0" y="0.0" type="priority" />
    <node id="junction_24" x="0.0" y="0.0" type="priority" />
    <node id="junction_88" x="0.0" y="0.0" type="priority" />
    <node id="junction_26" x="0.0" y="0.0" type="priority" />
    <node id="junction_27" x="0.0" y="0.0" type="priority" />
    <node id="junction_28" x="0.0" y="0.0" type="priority" />
    <node id="junction_91" x="0.0" y="0.0" type="priority" />
    <node id="junction_29" x="0.0" y="0.0" type="priority" />
    <node id="junction_92" x="0.0" y="0.0" type="priority" />
    <node id="junction_30" x="0.0" y="0.0" type="priority" />
    <node id="junction_31" x="0.0" y="0.0" type="priority" />
    <node id="junction_32" x="0.0" y="0.0" type="priority" />
    <node id="junction_96" x="0.0" y="0.0" type="priority" />
    <node id="junction_33" x="0.0" y="0.0" type="priority" />
    <node id="junction_98" x="0.0" y="0.0" type="priority" />
    <node id="junction_99" x="0.0" y="0.0" type="priority" />
    <node id="junction_100" x="0.0" y="0.0" type="priority" />
    <node id="junction_37" x="0.0" y="0.0" type="priority" />
    <node id="junction_36" x="0.0" y="0.0" type="priority" />
    <node id="junction_35" x="0.0" y="0.0" type="priority" />
    <node id="junction_97" x="0.0" y="0.0" type="priority" />
    <node id="junction_87" x="0.0" y="0.0" type="priority" />
    <node id="junction_89" x="0.0" y="0.0" type="priority" />
    <node id="junction_90" x="0.0" y="0.0" type="priority" />
    <node id="junction_93" x="0.0" y="0.0" type="priority" />
    <node id="junction_94" x="0.0" y="0.0" type="priority" />
    <node id="junction_95" x="0.0" y="0.0" type="priority" />
    <node id="junction_34" x="0.0" y="0.0" type="priority" />
    <node id="junction_38" x="0.0" y="0.0" type="priority" />
    <node id="junction_39" x="0.0" y="0.0" type="priority" />
    <node id="junction_40" x="0.0" y="0.0" type="priority" />
    <node id="junction_102" x="0.0" y="0.0" type="priority" />
    <node id="junction_103" x="0.0" y="0.0" type="priority" />
    <node id="junction_106" x="0.0" y="0.0" type="priority" />
    <node id="junction_42" x="0.0" y="0.0" type="priority" />
    <node id="junction_104" x="0.0" y="0.0" type="priority" />
    <node id="junction_41" x="0.0" y="0.0" type="priority" />
    <node id="junction_43" x="0.0" y="0.0" type="priority" />
    <node id="junction_44" x="0.0" y="0.0" type="priority" />
    <node id="junction_45" x="0.0" y="0.0" type="priority" />
    <node id="junction_108" x="0.0" y="0.0" type="priority" />
    <node id="junction_46" x="0.0" y="0.0" type="priority" />
    <node id="junction_47" x="0.0" y="0.0" type="priority" />
    <node id="junction_49" x="0.0" y="0.0" type="priority" />
    <node id="junction_111" x="0.0" y="0.0" type="priority" />
    <node id="junction_112" x="0.0" y="0.0" type="priority" />
    <node id="junction_50" x="0.0" y="0.0" type="priority" />
    <node id="junction_113" x="0.0" y="0.0" type="priority" />
    <node id="junction_52" x="0.0" y="0.0" type="priority" />
    <node id="junction_51" x="0.0" y="0.0" type="priority" />
    <node id="junction_53" x="0.0" y="0.0" type="priority" />
    <node id="junction_116" x="0.0" y="0.0" type="priority" />
    <node id="junction_115" x="0.0" y="0.0" type="priority" />
    <node id="junction_54" x="0.0" y="0.0" type="priority" />
    <node id="junction_48" x="0.0" y="0.0" type="priority" />
    <node id="junction_117" x="0.0" y="0.0" type="priority" />
    <node id="junction_101" x="0.0" y="0.0" type="priority" />
    <node id="junction_105" x="0.0" y="0.0" type="priority" />
    <node id="junction_107" x="0.0" y="0.0" type="priority" />
    <node id="junction_109" x="0.0" y="0.0" type="priority" />
    <node id="junction_110" x="0.0" y="0.0" type="priority" />
    <node id="junction_114" x="0.0" y="0.0" type="priority" />
    <node id="junction_13" x="0.0" y="0.0" type="priority" />
    <node id="junction_7" x="0.0" y="0.0" type="priority" />
    <node id="junction_15" x="0.0" y="0.0" type="priority" />
    <node id="junction_119" x="0.0" y="0.0" type="priority" />
    <node id="junction_120" x="0.0" y="0.0" type="priority" />
    <node id="junction_56" x="0.0" y="0.0" type="priority" />
    <node id="junction_118" x="0.0" y="0.0" type="priority" />
    <node id="junction_121" x="0.0" y="0.0" type="priority" />
    <node id="junction_61" x="0.0" y="0.0" type="priority" />
    <node id="junction_122" x="0.0" y="0.0" type="priority" />
    <node id="junction_8" x="0.0" y="0.0" type="priority" />
    <node id="junction_62" x="0.0" y="0.0" type="priority" />
    <node id="junction_71" x="0.0" y="0.0" type="priority" />
    <node id="junction_57" x="0.0" y="0.0" type="priority" />
    <node id="junction_5" x="0.0" y="0.0" type="priority" />
    <node id="junction_123" x="0.0" y="0.0" type="priority" />
    <node id="junction_25" x="0.0" y="0.0" type="priority" />
    <node id="junction_124" x="0.0" y="0.0" type="priority" />
    <node id="junction_58" x="0.0" y="0.0" type="priority" />
    <node id="junction_59" x="0.0" y="0.0" type="priority" />
    <node id="junction_125" x="0.0" y="0.0" type="priority" />
    <node id="junction_126" x="0.0" y="0.0" type="priority" />
    <node id="junction_60" x="0.0" y="0.0" type="priority" />
    <node id="junction_72" x="0.0" y="0.0" type="priority" />
    <node id="junction_127" x="0.0" y="0.0" type="priority" />
    <node id="junction_68" x="772808.3315004758" y="3295651.2076896187" type="priority" />
    <node id="j_merge_start_18" x="773943.5003979267" y="3295583.592977976" type="priority" />
    <node id="j_merge_end_18" x="773705.4311917812" y="3295535.0732084797" type="priority" />
    <node id="junction_4" x="775792.9270360315" y="3296279.8831032123" type="priority" />
    <node id="junction_63" x="781586.9075650417" y="3297413.649899951" type="priority" />
    <node id="junction_66" x="774985.5315210273" y="3295973.867489612" type="priority" />
    <node id="junction_65" x="778875.3345296428" y="3297449.2941455245" type="priority" />
    <node id="junction_67" x="775178.795451879" y="3296052.271246676" type="priority" />
    <node id="j_merge_start_19" x="777457.7159399051" y="3297255.438665655" type="priority" />
    <node id="j_merge_end_19" x="777168.5921105088" y="3297144.593757008" type="priority" />
    <node id="j_merge_start_1" x="780024.6116294353" y="3297526.4350553597" type="priority" />
    <node id="j_merge_end_1" x="779839.5242270916" y="3297514.8393522385" type="priority" />
</nodes>