<?xml version='1.0' encoding='utf-8'?>
<edges>
    <edge id="668.0" from="node_668_start" to="node_668_end" numLanes="2" speed="13.89" type="town" shape="759137.73,3293367.86 759193.95,3293382.31">
        <lane index="0" width="3.66" />
        <lane index="1" width="3.66" />
    </edge>
    <edge id="669.0" from="node_669_start" to="node_669_end" numLanes="2" speed="13.89" type="town" shape="756897.54,3292774.29 756903.19,3292776.17 756903.19,3292776.17 756921.97,3292782.44 756921.97,3292782.44 756946.36,3292790.96 756946.36,3292790.96 756954.42,3292793.90 756954.42,3292793.90 756965.00,3292797.29 756965.00,3292797.29 756985.05,3292803.89 756985.05,3292803.89 757007.71,3292811.42 757007.71,3292811.42 757029.89,3292818.41 757029.89,3292818.41 757043.18,3292822.63 757043.18,3292822.63 757065.08,3292829.35 757065.08,3292829.35 757084.40,3292835.13 757084.40,3292835.13 757098.66,3292839.26 757098.66,3292839.26 757124.55,3292846.66 757124.55,3292846.66 757153.03,3292854.70 757153.03,3292854.70 757168.87,3292859.06">
        <lane index="0" width="3.66" />
        <lane index="1" width="3.66" />
    </edge>
    <edge id="670.0" from="junction_96" to="node_670_end" numLanes="1" speed="13.89" type="town" shape="758012.40,3293068.65 758018.89,3293069.74 758018.89,3293069.74 758034.67,3293072.64 758034.67,3293072.64 758048.98,3293075.20 758048.98,3293075.20 758066.18,3293078.34 758066.18,3293078.34 758088.12,3293082.37 758088.12,3293082.37 758098.80,3293084.27 758098.80,3293084.27 758120.63,3293088.27">
        <lane index="0" width="3.66" />
    </edge>
    <edge id="671.0" from="junction_96" to="node_671_end" numLanes="2" speed="13.89" type="town" shape="758010.61,3293075.84 758038.64,3293082.96 758038.64,3293082.96 758080.09,3293093.61 758080.09,3293093.61 758099.46,3293098.54 758099.46,3293098.54 758127.24,3293105.75 758127.24,3293105.75 758162.16,3293114.72 758162.16,3293114.72 758199.60,3293124.38 758199.60,3293124.38 758253.95,3293138.22 758253.95,3293138.22 758303.22,3293150.80 758303.22,3293150.80 758354.15,3293163.94 758354.15,3293163.94 758400.74,3293175.82 758400.74,3293175.82 758433.69,3293184.22 758433.69,3293184.22 758469.10,3293193.17 758469.10,3293193.17 758479.66,3293195.91">
        <lane index="0" width="3.66" />
        <lane index="1" width="3.66" />
    </edge>
    <edge id="673.0" from="node_671_end" to="node_673_end" numLanes="2" speed="13.89" type="town" shape="758479.66,3293195.91 758499.86,3293201.14 758499.86,3293201.14 758546.45,3293213.09 758546.45,3293213.09 758580.77,3293221.94 758580.77,3293221.94 758634.19,3293235.68 758634.19,3293235.68 758674.24,3293245.89 758674.24,3293245.89 758685.32,3293248.68 758685.32,3293248.68 758711.77,3293255.21 758711.77,3293255.21 758726.10,3293258.80 758726.10,3293258.80 758742.20,3293262.86 758742.20,3293262.86 758758.73,3293266.94 758758.73,3293266.94 758777.08,3293271.47 758777.08,3293271.47 758794.84,3293276.42 758794.84,3293276.42 758825.06,3293285.07 758825.06,3293285.07 758853.52,3293293.32">
        <lane index="0" width="3.66" />
        <lane index="1" width="3.66" />
    </edge>
    <edge id="677.0" from="node_668_end" to="node_677_end" numLanes="2" speed="13.89" type="town" shape="759193.95,3293382.31 759290.67,3293407.16">
        <lane index="0" width="3.66" />
        <lane index="1" width="3.66" />
    </edge>
    <edge id="678.0" from="node_669_end" to="junction_96" numLanes="2" speed="13.89" type="town" shape="757168.87,3292859.06 757180.25,3292862.20 757180.25,3292862.20 757194.06,3292866.00 757194.06,3292866.00 757206.31,3292869.13 757206.31,3292869.13 757246.83,3292879.61 757246.83,3292879.61 757296.48,3292892.38 757296.48,3292892.38 757347.13,3292905.45 757347.13,3292905.45 757416.10,3292923.13 757416.10,3292923.13 757469.08,3292936.73 757469.08,3292936.73 757527.99,3292951.80 757527.99,3292951.80 757571.90,3292963.04 757571.90,3292963.04 757621.30,3292975.72 757621.30,3292975.72 757679.62,3292990.77 757679.62,3292990.77 757737.12,3293005.55 757737.12,3293005.55 757782.81,3293017.31 757782.81,3293017.31 757832.40,3293030.07 757832.40,3293030.07 757865.25,3293038.57 757865.25,3293038.57 757896.48,3293046.63 757896.48,3293046.63 757923.58,3293053.55 757923.58,3293053.55 757935.63,3293056.64">
        <lane index="0" width="3.66" />
        <lane index="1" width="3.66" />
    </edge>
    <edge id="682.0" from="node_682_start" to="node_682_end" numLanes="5" speed="13.89" type="town" shape="760931.30,3293832.40 760948.91,3293836.95 760948.91,3293836.95 760967.97,3293841.86 760967.97,3293841.86 760985.45,3293846.34 760985.45,3293846.34 761006.40,3293851.72 761006.40,3293851.72 761028.24,3293857.31 761028.24,3293857.31 761049.51,3293862.83 761049.51,3293862.83 761074.77,3293869.30 761074.77,3293869.30 761102.97,3293876.53 761102.97,3293876.53 761140.54,3293886.13 761140.54,3293886.13 761179.25,3293896.04 761179.25,3293896.04 761217.71,3293906.02">
        <lane index="0" width="3.66" type="shoulder" disallow="all" />
        <lane index="1" width="3.66" />
        <lane index="2" width="3.66" />
        <lane index="3" width="3.66" />
        <lane index="4" width="3.66" type="shoulder" disallow="all" />
    </edge>
    <edge id="685.0" from="node_685_start" to="node_682_start" numLanes="4" speed="13.89" type="town" shape="760853.74,3293812.53 760874.58,3293817.89 760874.58,3293817.89 760895.01,3293823.15 760895.01,3293823.15 760915.78,3293828.42 760915.78,3293828.42 760931.30,3293832.40">
        <lane index="0" width="3.66" />
        <lane index="1" width="3.66" />
        <lane index="2" width="3.66" />
        <lane index="3" width="3.66" type="shoulder" disallow="all" />
    </edge>
    <edge id="688.0" from="node_688_start" to="node_688_end" numLanes="5" speed="13.89" type="town" shape="764968.01,3294635.88 764975.50,3294637.08">
        <lane index="0" width="3.66" type="shoulder" disallow="all" />
        <lane index="1" width="3.66" />
        <lane index="2" width="3.66" />
        <lane index="3" width="3.66" />
        <lane index="4" width="3.66" type="shoulder" disallow="all" />
    </edge>
    <edge id="694.0" from="node_688_end" to="node_694_end" numLanes="5" speed="13.89" type="town" shape="764975.50,3294637.08 764999.56,3294640.97 764999.56,3294640.97 765025.45,3294645.07 765025.45,3294645.07 765046.00,3294648.40 765046.00,3294648.40 765071.70,3294652.56 765071.70,3294652.56 765081.51,3294654.13 765081.51,3294654.13 765093.83,3294656.08 765093.83,3294656.08 765112.03,3294659.02 765112.03,3294659.02 765120.05,3294660.22">
        <lane index="0" width="3.66" type="shoulder" disallow="all" />
        <lane index="1" width="3.66" />
        <lane index="2" width="3.66" />
        <lane index="3" width="3.66" />
        <lane index="4" width="3.66" type="shoulder" disallow="all" />
    </edge>
    <edge id="695.0" from="node_695_start" to="node_695_end" numLanes="5" speed="13.89" type="town" shape="761225.66,3293908.06 761252.70,3293914.97 761252.70,3293914.97 761275.95,3293920.90 761275.95,3293920.90 761297.85,3293926.51 761297.85,3293926.51 761319.46,3293932.13 761319.46,3293932.13 761337.95,3293936.91 761337.95,3293936.91 761355.26,3293941.33 761355.26,3293941.33 761378.32,3293947.26 761378.32,3293947.26 761400.03,3293952.83 761400.03,3293952.83 761420.09,3293957.98 761420.09,3293957.98 761439.74,3293963.01 761439.74,3293963.01 761459.50,3293968.11 761459.50,3293968.11 761485.60,3293974.84 761485.60,3293974.84 761501.19,3293978.82">
        <lane index="0" width="3.66" type="shoulder" disallow="all" />
        <lane index="1" width="3.66" />
        <lane index="2" width="3.66" />
        <lane index="3" width="3.66" />
        <lane index="4" width="3.66" type="shoulder" disallow="all" />
    </edge>
    <edge id="696.0" from="node_695_end" to="node_688_start" numLanes="5" speed="13.89" type="town" shape="761501.19,3293978.82 761529.90,3293986.25 761529.90,3293986.25 761563.50,3293994.87 761563.50,3293994.87 761588.35,3294001.23 761588.35,3294001.23 761608.94,3294006.47 761608.94,3294006.47 761637.77,3294013.92 761637.77,3294013.92 761661.02,3294019.90 761661.02,3294019.90 761677.80,3294024.20 761677.80,3294024.20 761705.12,3294031.20 761705.12,3294031.20 761730.16,3294037.62 761730.16,3294037.62 761756.73,3294044.50 761756.73,3294044.50 761778.35,3294050.00 761778.35,3294050.00 761815.04,3294059.47 761815.04,3294059.47 761841.48,3294066.26 761841.48,3294066.26 761855.65,3294069.88 761855.65,3294069.88 761877.23,3294075.43 761877.23,3294075.43 761895.31,3294080.09 761895.31,3294080.09 761914.33,3294084.97 761914.33,3294084.97 761929.91,3294088.96 761929.91,3294088.96 761943.24,3294092.40 761943.24,3294092.40 761955.87,3294095.64 761955.87,3294095.64 761970.80,3294099.49 761970.80,3294099.49 761987.18,3294103.67 761987.18,3294103.67 762003.02,3294107.75 762003.02,3294107.75 762030.29,3294114.75 762030.29,3294114.75 762051.90,3294120.32 762051.90,3294120.32 762071.83,3294125.40 762071.83,3294125.40 762093.23,3294130.92 762093.23,3294130.92 762106.09,3294134.22 762106.09,3294134.22 762128.41,3294139.92 762128.41,3294139.92 762152.01,3294145.97 762152.01,3294145.97 762171.82,3294151.07 762171.82,3294151.07 762185.26,3294154.54 762185.26,3294154.54 762198.27,3294157.86 762198.27,3294157.86 762246.32,3294170.12 762246.32,3294170.12 762280.42,3294178.69 762280.42,3294178.69 762305.49,3294184.96 762305.49,3294184.96 762328.00,3294190.43 762328.00,3294190.43 762349.19,3294195.52 762349.19,3294195.52 762368.36,3294200.10 762368.36,3294200.10 762385.80,3294204.20 762385.80,3294204.20 762404.06,3294208.41 762404.06,3294208.41 762421.69,3294212.42 762421.69,3294212.42 762450.34,3294218.79 762450.34,3294218.79 762474.53,3294224.16 762474.53,3294224.16 762503.23,3294230.49 762503.23,3294230.49 762532.64,3294236.70 762532.64,3294236.70 762558.06,3294242.08 762558.06,3294242.08 762580.49,3294246.73 762580.49,3294246.73 762611.59,3294253.01 762611.59,3294253.01 762640.19,3294258.66 762640.19,3294258.66 762665.74,3294263.66 762665.74,3294263.66 762695.85,3294269.32 762695.85,3294269.32 762718.83,3294273.58 762718.83,3294273.58 762744.87,3294278.29 762744.87,3294278.29 762775.40,3294283.69 762775.40,3294283.69 762805.63,3294288.93 762805.63,3294288.93 762840.77,3294294.80 762840.77,3294294.80 762867.66,3294299.27 762867.66,3294299.27 762889.67,3294302.86 762889.67,3294302.86 762912.64,3294306.47 762912.64,3294306.47 762935.32,3294310.13 762935.32,3294310.13 762957.60,3294313.70 762957.60,3294313.70 762980.92,3294317.46 762980.92,3294317.46 762999.58,3294320.46 762999.58,3294320.46 763019.78,3294323.72 763019.78,3294323.72 763040.62,3294327.02 763040.62,3294327.02 763062.17,3294330.48 763062.17,3294330.48 763085.60,3294334.25 763085.60,3294334.25 763111.58,3294338.41 763111.58,3294338.41 763133.09,3294341.85 763133.09,3294341.85 763156.18,3294345.60 763156.18,3294345.60 763176.62,3294348.94 763176.62,3294348.94 763196.61,3294352.04 763196.61,3294352.04 763214.45,3294354.91 763214.45,3294354.91 763237.18,3294358.57 763237.18,3294358.57 763263.81,3294362.84 763263.81,3294362.84 763293.23,3294367.53 763293.23,3294367.53 763331.25,3294373.61 763331.25,3294373.61 763382.17,3294381.78 763382.17,3294381.78 763422.09,3294388.20 763422.09,3294388.20 763459.01,3294393.93 763459.01,3294393.93 763493.23,3294399.53 763493.23,3294399.53 763529.00,3294405.29 763529.00,3294405.29 763566.25,3294411.28 763566.25,3294411.28 763612.30,3294418.67 763612.30,3294418.67 763648.69,3294424.45 763648.69,3294424.45 763686.40,3294430.46 763686.40,3294430.46 763724.88,3294436.64 763724.88,3294436.64 763762.28,3294442.68 763762.28,3294442.68 763788.02,3294446.78 763788.02,3294446.78 763807.73,3294449.97 763807.73,3294449.97 763828.22,3294453.22 763828.22,3294453.22 763851.88,3294457.02 763851.88,3294457.02 763880.99,3294461.68 763880.99,3294461.68 763903.25,3294465.27 763903.25,3294465.27 763932.64,3294469.85 763932.64,3294469.85 763975.47,3294476.73 763975.47,3294476.73 764006.45,3294481.74 764006.45,3294481.74 764037.63,3294486.76 764037.63,3294486.76 764041.08,3294486.97 764041.08,3294486.97 764058.67,3294489.81 764058.67,3294489.81 764062.19,3294490.66 764062.19,3294490.66 764105.45,3294497.66 764105.45,3294497.66 764166.59,3294507.45 764166.59,3294507.45 764216.29,3294515.38 764216.29,3294515.38 764261.93,3294522.70 764261.93,3294522.70 764303.20,3294529.39 764303.20,3294529.39 764334.73,3294534.44 764334.73,3294534.44 764365.85,3294539.42 764365.85,3294539.42 764401.47,3294545.13 764401.47,3294545.13 764428.00,3294549.38 764428.00,3294549.38 764455.82,3294553.85 764455.82,3294553.85 764477.96,3294557.38 764477.96,3294557.38 764496.54,3294560.34 764496.54,3294560.34 764514.01,3294563.17 764514.01,3294563.17 764532.62,3294566.18 764532.62,3294566.18 764548.75,3294568.75 764548.75,3294568.75 764571.97,3294572.47 764571.97,3294572.47 764592.34,3294575.70 764592.34,3294575.70 764607.31,3294578.12 764607.31,3294578.12 764621.54,3294580.42 764621.54,3294580.42 764632.11,3294582.13 764632.11,3294582.13 764649.58,3294584.92 764649.58,3294584.92 764672.48,3294588.61 764672.48,3294588.61 764699.25,3294592.82 764699.25,3294592.82 764722.48,3294596.54 764722.48,3294596.54 764758.11,3294602.26 764758.11,3294602.26 764787.65,3294606.96 764787.65,3294606.96 764820.79,3294612.30 764820.79,3294612.30 764845.60,3294616.25 764845.60,3294616.25 764871.12,3294620.24 764871.12,3294620.24 764897.82,3294624.61 764897.82,3294624.61 764933.65,3294630.34 764933.65,3294630.34 764968.01,3294635.88">
        <lane index="0" width="3.66" type="shoulder" disallow="all" />
        <lane index="1" width="3.66" />
        <lane index="2" width="3.66" />
        <lane index="3" width="3.66" />
        <lane index="4" width="3.66" type="shoulder" disallow="all" />
    </edge>
    <edge id="698.0" from="node_682_end" to="node_695_start" numLanes="5" speed="13.89" type="town" shape="761217.71,3293906.02 761225.66,3293908.06">
        <lane index="0" width="3.66" type="shoulder" disallow="all" />
        <lane index="1" width="3.66" />
        <lane index="2" width="3.66" />
        <lane index="3" width="3.66" />
        <lane index="4" width="3.66" type="shoulder" disallow="all" />
    </edge>
    <edge id="702.0" from="node_702_start" to="node_702_end" numLanes="1" speed="13.89" type="town" shape="760859.57,3293792.25 760880.49,3293797.00 760880.49,3293797.00 760911.70,3293804.03 760911.70,3293804.03 760937.55,3293809.92">
        <lane index="0" width="3.66" />
    </edge>
    <edge id="851.0" from="node_851_start" to="node_702_start" numLanes="1" speed="13.89" type="town" shape="760728.49,3293767.30 760752.20,3293771.44 760752.20,3293771.44 760777.23,3293775.60 760777.23,3293775.60 760813.22,3293782.49 760813.22,3293782.49 760852.57,3293790.65 760852.57,3293790.65 760859.57,3293792.25">
        <lane index="0" width="3.66" />
    </edge>
    <edge id="852.0" from="junction_111" to="node_852_end" numLanes="2" speed="13.89" type="town" shape="760703.05,3293769.91 760719.79,3293774.17 760719.79,3293774.17 760751.46,3293782.40">
        <lane index="0" width="3.66" />
        <lane index="1" width="3.66" />
    </edge>
    <edge id="896.0" from="node_673_end" to="node_896_end" numLanes="2" speed="13.89" type="town" shape="758853.52,3293293.32 758892.80,3293304.66 758892.80,3293304.66 758910.73,3293309.55 758910.73,3293309.55 758928.81,3293314.19 758928.81,3293314.19 758962.70,3293322.81 758962.70,3293322.81 759017.90,3293337.02 759017.90,3293337.02 759061.08,3293348.10">
        <lane index="0" width="3.66" />
        <lane index="1" width="3.66" />
    </edge>
    <edge id="897.0" from="node_896_end" to="node_668_start" numLanes="2" speed="13.89" type="town" shape="759061.08,3293348.10 759097.95,3293357.71 759097.95,3293357.71 759137.73,3293367.86">
        <lane index="0" width="3.66" />
        <lane index="1" width="3.66" />
    </edge>
    <edge id="898.0" from="node_677_end" to="node_898_end" numLanes="2" speed="13.89" type="town" shape="759290.67,3293407.16 759306.62,3293411.21 759306.62,3293411.21 759406.78,3293436.94 759406.78,3293436.94 759466.83,3293452.40 759466.83,3293452.40 759532.79,3293469.34 759532.79,3293469.34 759578.98,3293481.21">
        <lane index="0" width="3.66" />
        <lane index="1" width="3.66" />
    </edge>
    <edge id="899.0" from="node_898_end" to="node_899_end" numLanes="2" speed="13.89" type="town" shape="759578.98,3293481.21 759592.14,3293484.60 759592.14,3293484.60 759646.22,3293498.48 759646.22,3293498.48 759658.25,3293501.57">
        <lane index="0" width="3.66" />
        <lane index="1" width="3.66" />
    </edge>
    <edge id="900.0" from="node_899_end" to="junction_111" numLanes="2" speed="13.89" type="town" shape="759658.25,3293501.57 759694.10,3293510.77 759694.10,3293510.77 759739.87,3293522.56 759739.87,3293522.56 759780.67,3293532.98 759780.67,3293532.98 759834.75,3293546.91 759834.75,3293546.91 759887.05,3293560.31 759887.05,3293560.31 759946.30,3293575.41 759946.30,3293575.41 760040.58,3293599.72 760040.58,3293599.72 760089.23,3293612.26 760089.23,3293612.26 760136.58,3293624.40 760136.58,3293624.40 760202.97,3293641.46 760202.97,3293641.46 760267.01,3293657.88 760267.01,3293657.88 760330.21,3293674.17 760330.21,3293674.17 760390.46,3293689.64 760390.46,3293689.64 760449.84,3293704.91 760449.84,3293704.91 760489.11,3293714.93 760489.11,3293714.93 760512.55,3293721.00 760512.55,3293721.00 760526.25,3293724.49 760526.25,3293724.49 760543.03,3293728.82 760543.03,3293728.82 760566.41,3293734.82 760566.41,3293734.82 760589.25,3293740.68">
        <lane index="0" width="3.66" />
        <lane index="1" width="3.66" />
    </edge>
    <edge id="902.0" from="junction_111" to="node_851_start" numLanes="1" speed="13.89" type="town" shape="760705.14,3293762.84 760715.21,3293764.97 760715.21,3293764.97 760728.49,3293767.30">
        <lane index="0" width="3.66" />
    </edge>
    <edge id="903.0" from="node_852_end" to="node_903_end" numLanes="2" speed="13.89" type="town" shape="760751.46,3293782.40 760777.31,3293788.99 760777.31,3293788.99 760801.82,3293795.27 760801.82,3293795.27 760819.96,3293799.95 760819.96,3293799.95 760823.01,3293800.72">
        <lane index="0" width="3.66" />
        <lane index="1" width="3.66" />
    </edge>
    <edge id="904.0" from="node_903_end" to="node_685_start" numLanes="2" speed="13.89" type="town" shape="760823.01,3293800.72 760854.71,3293808.94">
        <lane index="0" width="3.66" />
        <lane index="1" width="3.66" />
    </edge>
    <edge id="905.0" from="node_903_end" to="node_685_start" numLanes="1" speed="13.89" type="town" shape="760823.96,3293797.09 760840.36,3293799.42 760840.36,3293799.42 760856.81,3293801.78">
        <lane index="0" width="3.66" />
    </edge>
</edges>