<?xml version="1.0" encoding="UTF-8"?>

<!-- generated on 2025-10-19 17:35:18 by Eclipse SUMO netconvert Version 1.23.1
<netconvertConfiguration xmlns:xsi="http://www.w3.org/2001/XMLSchema-instance" xsi:noNamespaceSchemaLocation="http://sumo.dlr.de/xsd/netconvertConfiguration.xsd">

    <input>
        <node-files value="/home/sdai/harry/TeraSim/jupiter/eb/jupiter_eb_tiles/tile_0124/tile_0124.nod.xml"/>
        <edge-files value="/home/sdai/harry/TeraSim/jupiter/eb/jupiter_eb_tiles/tile_0124/tile_0124.edg.xml"/>
        <connection-files value="/home/sdai/harry/TeraSim/jupiter/eb/jupiter_eb_tiles/tile_0124/tile_0124.con.xml"/>
    </input>

    <output>
        <output-file value="/home/sdai/harry/TeraSim/jupiter/eb/jupiter_eb_tiles/tile_0124/tile_0124.net.xml"/>
        <output.street-names value="true"/>
        <output.original-names value="true"/>
    </output>

    <processing>
        <geometry.remove value="false"/>
        <geometry.min-dist value="0.5"/>
        <edges.join value="false"/>
    </processing>

    <junctions>
        <no-internal-links value="false"/>
        <no-turnarounds value="true"/>
        <junctions.join value="true"/>
        <junctions.join-dist value="10"/>
        <junctions.corner-detail value="5"/>
        <junctions.internal-link-detail value="5"/>
        <junctions.limit-turn-speed value="5.5"/>
        <rectangular-lane-cut value="true"/>
        <check-lane-foes.all value="true"/>
    </junctions>

</netconvertConfiguration>
-->

<net version="1.20" junctionCornerDetail="5" junctionLinkDetail="5" rectangularLaneCut="true" limitTurnSpeed="5.50" checkLaneFoesAll="1" xmlns:xsi="http://www.w3.org/2001/XMLSchema-instance" xsi:noNamespaceSchemaLocation="http://sumo.dlr.de/xsd/net_file.xsd">

    <location netOffset="-756897.54,-3292774.29" convBoundary="0.00,0.00,8222.51,1885.93" origBoundary="0.00,0.00,765767.02,3294763.93" projParameter="!"/>

    <edge id=":junction_111_0" function="internal">
        <lane id=":junction_111_0_0" index="0" speed="13.89" length="117.74" width="3.66" shape="3693.07,961.07 3807.98,986.76"/>
    </edge>
    <edge id=":junction_111_1" function="internal">
        <lane id=":junction_111_1_0" index="0" speed="13.89" length="118.07" width="3.66" shape="3693.07,961.07 3807.43,990.44"/>
        <lane id=":junction_111_1_1" index="1" speed="13.89" length="118.07" width="3.66" shape="3692.16,964.62 3806.53,993.99"/>
    </edge>
    <edge id=":junction_96_0" function="internal">
        <lane id=":junction_96_0_0" index="0" speed="13.89" length="80.20" width="3.66" shape="1039.45,277.03 1118.04,293.04"/>
    </edge>
    <edge id=":junction_96_1" function="internal">
        <lane id=":junction_96_1_0" index="0" speed="13.89" length="80.27" width="3.66" shape="1039.45,277.03 1117.21,296.94"/>
        <lane id=":junction_96_1_1" index="1" speed="13.89" length="80.27" width="3.66" shape="1038.54,280.58 1116.31,300.49"/>
    </edge>
    <edge id=":node_668_end_0" function="internal">
        <lane id=":node_668_end_0_0" index="0" speed="13.89" length="0.10" width="3.66" shape="2297.78,602.70 2297.78,602.70"/>
        <lane id=":node_668_end_0_1" index="1" speed="13.89" length="0.10" width="3.66" shape="2296.87,606.25 2296.87,606.25"/>
    </edge>
    <edge id=":node_668_start_0" function="internal">
        <lane id=":node_668_start_0_0" index="0" speed="13.89" length="0.30" width="3.66" shape="2241.41,588.21 2241.70,588.29"/>
        <lane id=":node_668_start_0_1" index="1" speed="13.89" length="0.30" width="3.66" shape="2240.50,591.76 2240.79,591.83"/>
    </edge>
    <edge id=":node_669_end_0" function="internal">
        <lane id=":node_669_end_0_0" index="0" speed="13.89" length="0.30" width="3.66" shape="272.64,79.44 272.93,79.52"/>
        <lane id=":node_669_end_0_1" index="1" speed="13.89" length="0.30" width="3.66" shape="271.67,82.97 271.96,83.05"/>
    </edge>
    <edge id=":node_671_end_0" function="internal">
        <lane id=":node_671_end_0_0" index="0" speed="13.89" length="0.30" width="3.66" shape="1583.35,416.27 1583.64,416.34"/>
        <lane id=":node_671_end_0_1" index="1" speed="13.89" length="0.30" width="3.66" shape="1582.43,419.81 1582.72,419.89"/>
    </edge>
    <edge id=":node_673_end_0" function="internal">
        <lane id=":node_673_end_0_0" index="0" speed="13.89" length="0.30" width="3.66" shape="1957.36,513.71 1957.65,513.80"/>
        <lane id=":node_673_end_0_1" index="1" speed="13.89" length="0.30" width="3.66" shape="1956.34,517.23 1956.63,517.31"/>
    </edge>
    <edge id=":node_677_end_0" function="internal">
        <lane id=":node_677_end_0_0" index="0" speed="13.89" length="0.30" width="3.66" shape="2394.35,627.51 2394.63,627.59"/>
        <lane id=":node_677_end_0_1" index="1" speed="13.89" length="0.30" width="3.66" shape="2393.44,631.06 2393.73,631.13"/>
    </edge>
    <edge id=":node_682_end_0" function="internal">
        <lane id=":node_682_end_0_0" index="0" speed="13.89" length="0.30" width="3.66" shape="4323.23,1119.29 4323.51,1119.36"/>
        <lane id=":node_682_end_0_1" index="1" speed="13.89" length="0.30" width="3.66" shape="4322.31,1122.83 4322.60,1122.91"/>
        <lane id=":node_682_end_0_2" index="2" speed="13.89" length="0.30" width="3.66" shape="4321.39,1126.38 4321.69,1126.45"/>
    </edge>
    <edge id=":node_682_start_0" function="internal">
        <lane id=":node_682_start_0_0" index="0" speed="13.89" length="3.00" width="3.66" shape="4035.50,1045.33 4038.41,1046.08"/>
        <lane id=":node_682_start_0_1" index="1" speed="13.89" length="3.00" width="3.66" shape="4034.59,1048.88 4037.49,1049.62"/>
        <lane id=":node_682_start_0_2" index="2" speed="13.89" length="3.00" width="3.66" shape="4033.68,1052.42 4036.58,1053.17"/>
    </edge>
    <edge id=":node_685_start_0" function="internal">
        <lane id=":node_685_start_0_0" index="0" speed="13.89" length="3.32" width="3.66" shape="3956.62,1028.83 3959.81,1029.72"/>
        <lane id=":node_685_start_0_1" index="1" speed="13.89" length="3.32" width="3.66" shape="3955.70,1032.38 3958.90,1033.27"/>
    </edge>
    <edge id=":node_685_start_2" function="internal">
        <lane id=":node_685_start_2_0" index="0" speed="13.89" length="3.11" width="3.66" shape="3957.71,1025.42 3958.62,1025.58 3959.23,1025.74 3959.84,1025.93 3960.73,1026.18"/>
    </edge>
    <edge id=":node_688_end_0" function="internal">
        <lane id=":node_688_end_0_0" index="0" speed="13.89" length="0.30" width="3.66" shape="8079.84,1850.12 8080.15,1850.17"/>
        <lane id=":node_688_end_0_1" index="1" speed="13.89" length="0.30" width="3.66" shape="8079.27,1853.73 8079.56,1853.78"/>
        <lane id=":node_688_end_0_2" index="2" speed="13.89" length="0.30" width="3.66" shape="8078.69,1857.35 8078.98,1857.39"/>
    </edge>
    <edge id=":node_688_start_0" function="internal">
        <lane id=":node_688_start_0_0" index="0" speed="13.89" length="0.30" width="3.66" shape="8072.36,1848.92 8072.65,1848.97"/>
        <lane id=":node_688_start_0_1" index="1" speed="13.89" length="0.30" width="3.66" shape="8071.77,1852.53 8072.07,1852.58"/>
        <lane id=":node_688_start_0_2" index="2" speed="13.89" length="0.30" width="3.66" shape="8071.19,1856.15 8071.49,1856.19"/>
    </edge>
    <edge id=":node_695_end_0" function="internal">
        <lane id=":node_695_end_0_0" index="0" speed="13.89" length="0.30" width="3.66" shape="4606.69,1192.08 4606.99,1192.16"/>
        <lane id=":node_695_end_0_1" index="1" speed="13.89" length="0.30" width="3.66" shape="4605.78,1195.63 4606.07,1195.71"/>
        <lane id=":node_695_end_0_2" index="2" speed="13.89" length="0.30" width="3.66" shape="4604.88,1199.18 4605.16,1199.25"/>
    </edge>
    <edge id=":node_695_start_0" function="internal">
        <lane id=":node_695_start_0_0" index="0" speed="13.89" length="0.30" width="3.66" shape="4331.15,1121.32 4331.44,1121.40"/>
        <lane id=":node_695_start_0_1" index="1" speed="13.89" length="0.30" width="3.66" shape="4330.24,1124.87 4330.54,1124.94"/>
        <lane id=":node_695_start_0_2" index="2" speed="13.89" length="0.30" width="3.66" shape="4329.33,1128.41 4329.63,1128.49"/>
    </edge>
    <edge id=":node_702_start_0" function="internal">
        <lane id=":node_702_start_0_0" index="0" speed="13.89" length="0.30" width="3.66" shape="3962.29,1016.14 3962.58,1016.21"/>
    </edge>
    <edge id=":node_851_start_0" function="internal">
        <lane id=":node_851_start_0_0" index="0" speed="13.89" length="0.30" width="3.66" shape="3831.12,991.18 3831.41,991.23"/>
    </edge>
    <edge id=":node_852_end_0" function="internal">
        <lane id=":node_852_end_0_0" index="0" speed="13.89" length="0.30" width="3.66" shape="3855.15,1002.76 3855.43,1002.83"/>
        <lane id=":node_852_end_0_1" index="1" speed="13.89" length="0.30" width="3.66" shape="3854.23,1006.30 3854.53,1006.38"/>
    </edge>
    <edge id=":node_896_end_0" function="internal">
        <lane id=":node_896_end_0_0" index="0" speed="13.89" length="0.30" width="3.66" shape="2164.77,568.46 2165.06,568.53"/>
        <lane id=":node_896_end_0_1" index="1" speed="13.89" length="0.30" width="3.66" shape="2163.86,572.00 2164.14,572.08"/>
    </edge>
    <edge id=":node_898_end_0" function="internal">
        <lane id=":node_898_end_0_0" index="0" speed="13.89" length="0.30" width="3.66" shape="2682.66,701.57 2682.95,701.64"/>
        <lane id=":node_898_end_0_1" index="1" speed="13.89" length="0.30" width="3.66" shape="2681.75,705.11 2682.04,705.19"/>
    </edge>
    <edge id=":node_899_end_0" function="internal">
        <lane id=":node_899_end_0_0" index="0" speed="13.89" length="0.10" width="3.66" shape="2762.08,721.96 2762.07,721.96"/>
        <lane id=":node_899_end_0_1" index="1" speed="13.89" length="0.10" width="3.66" shape="2761.17,725.51 2761.16,725.51"/>
    </edge>
    <edge id=":node_903_end_0" function="internal">
        <lane id=":node_903_end_0_0" index="0" speed="13.89" length="7.52" width="3.66" shape="3923.08,1020.16 3925.25,1020.70 3926.75,1021.00 3928.26,1021.22 3930.47,1021.53"/>
    </edge>
    <edge id=":node_903_end_1" function="internal">
        <lane id=":node_903_end_1_0" index="0" speed="13.89" length="8.17" width="3.66" shape="3923.08,1020.16 3931.00,1022.19"/>
        <lane id=":node_903_end_1_1" index="1" speed="13.89" length="8.17" width="3.66" shape="3922.17,1023.71 3930.08,1025.74"/>
    </edge>

    <edge id="668.0" from="node_668_start" to="node_668_end" priority="-1" type="town">
        <lane id="668.0_0" index="0" speed="13.89" length="57.90" width="3.66" shape="2241.70,588.29 2297.78,602.70"/>
        <lane id="668.0_1" index="1" speed="13.89" length="57.90" width="3.66" shape="2240.79,591.83 2296.87,606.25"/>
    </edge>
    <edge id="669.0" from="node_669_start" to="node_669_end" priority="-1" type="town" shape="0.00,0.00 5.65,1.88 24.43,8.15 48.82,16.67 56.88,19.61 67.46,23.00 87.51,29.60 110.17,37.13 132.35,44.12 145.64,48.34 167.54,55.06 186.86,60.84 201.12,64.97 227.01,72.37 255.49,80.41 271.33,84.77">
        <lane id="669.0_0" index="0" speed="13.89" length="283.99" width="3.66" shape="1.73,-5.21 7.39,-3.33 26.20,2.95 50.67,11.50 58.66,14.42 69.16,17.78 89.23,24.39 111.86,31.91 134.00,38.89 147.28,43.10 169.13,49.81 188.41,55.57 202.64,59.69 228.51,67.09 256.96,75.12 272.64,79.44"/>
        <lane id="669.0_1" index="1" speed="13.89" length="283.99" width="3.66" shape="0.58,-1.74 6.23,0.14 25.02,6.42 49.44,14.95 57.47,17.88 68.03,21.26 88.08,27.86 110.73,35.39 132.90,42.38 146.19,46.59 168.07,53.31 187.38,59.08 201.63,63.21 227.51,70.61 255.98,78.65 271.67,82.97"/>
    </edge>
    <edge id="670.0" from="junction_96" to="node_670_end" priority="-1" type="town" shape="1114.86,294.36 1121.35,295.45 1137.13,298.35 1151.44,300.91 1168.64,304.05 1190.58,308.08 1201.26,309.98 1223.09,313.98">
        <lane id="670.0_0" index="0" speed="13.89" length="107.11" width="3.66" shape="1118.04,293.04 1121.67,293.65 1137.46,296.55 1151.77,299.11 1168.97,302.25 1190.91,306.28 1201.59,308.18 1223.42,312.18"/>
    </edge>
    <edge id="671.0" from="junction_96" to="node_671_end" priority="-1" type="town" shape="1113.07,301.55 1141.10,308.67 1182.55,319.32 1201.92,324.25 1229.70,331.46 1264.62,340.43 1302.06,350.09 1356.41,363.93 1405.68,376.51 1456.61,389.65 1503.20,401.53 1536.15,409.93 1571.56,418.88 1582.12,421.62">
        <lane id="671.0_0" index="0" speed="13.89" length="481.16" width="3.66" shape="1117.21,296.94 1142.46,303.35 1183.91,314.00 1203.29,318.93 1231.07,326.14 1265.99,335.11 1303.42,344.77 1357.77,358.61 1407.04,371.19 1457.97,384.33 1504.56,396.21 1537.50,404.61 1572.91,413.56 1583.35,416.27"/>
        <lane id="671.0_1" index="1" speed="13.89" length="481.16" width="3.66" shape="1116.31,300.49 1141.55,306.90 1183.00,317.55 1202.38,322.48 1230.16,329.69 1265.08,338.66 1302.51,348.32 1356.86,362.16 1406.13,374.74 1457.06,387.88 1503.65,399.76 1536.60,408.16 1572.01,417.11 1582.43,419.81"/>
    </edge>
    <edge id="673.0" from="node_671_end" to="node_673_end" priority="-1" type="town" shape="1582.12,421.62 1602.32,426.85 1648.91,438.80 1683.23,447.65 1736.65,461.39 1776.70,471.60 1787.78,474.39 1814.23,480.92 1828.56,484.51 1844.66,488.57 1861.19,492.65 1879.54,497.18 1897.30,502.13 1927.52,510.78 1955.98,519.03">
        <lane id="673.0_0" index="0" speed="13.89" length="386.18" width="3.66" shape="1583.64,416.34 1603.69,421.53 1650.28,433.48 1684.60,442.33 1738.01,456.07 1778.05,466.28 1789.11,469.06 1815.55,475.59 1829.90,479.19 1845.99,483.24 1862.51,487.32 1880.94,491.87 1898.79,496.85 1929.04,505.50 1957.36,513.71"/>
        <lane id="673.0_1" index="1" speed="13.89" length="386.18" width="3.66" shape="1582.72,419.89 1602.78,425.08 1649.37,437.03 1683.69,445.88 1737.10,459.62 1777.15,469.83 1788.22,472.61 1814.67,479.14 1829.01,482.74 1845.10,486.79 1861.63,490.87 1880.01,495.41 1897.80,500.37 1928.03,509.02 1956.34,517.23"/>
    </edge>
    <edge id="677.0" from="node_668_end" to="node_677_end" priority="-1" type="town">
        <lane id="677.0_0" index="0" speed="13.89" length="99.71" width="3.66" shape="2297.78,602.70 2394.35,627.51"/>
        <lane id="677.0_1" index="1" speed="13.89" length="99.71" width="3.66" shape="2296.87,606.25 2393.44,631.06"/>
    </edge>
    <edge id="678.0" from="node_669_end" to="junction_96" priority="-1" type="town" shape="271.33,84.77 282.71,87.91 296.52,91.71 308.77,94.84 349.29,105.32 398.94,118.09 449.59,131.16 518.56,148.84 571.54,162.44 630.45,177.51 674.36,188.75 723.76,201.43 782.08,216.48 839.58,231.26 885.27,243.02 934.86,255.78 967.71,264.28 998.94,272.34 1026.04,279.26 1038.09,282.35">
        <lane id="678.0_0" index="0" speed="13.89" length="791.60" width="3.66" shape="272.93,79.52 284.17,82.62 297.93,86.40 310.14,89.52 350.66,100.00 400.31,112.77 450.96,125.84 519.92,143.52 572.90,157.12 631.81,172.19 675.72,183.43 725.13,196.11 783.45,211.16 840.95,225.94 886.64,237.70 936.23,250.46 969.08,258.96 1000.31,267.02 1027.40,273.94 1039.45,277.03"/>
        <lane id="678.0_1" index="1" speed="13.89" length="791.60" width="3.66" shape="271.96,83.05 283.20,86.15 296.99,89.94 309.23,93.07 349.75,103.55 399.40,116.32 450.05,129.39 519.01,147.07 571.99,160.67 630.90,175.74 674.81,186.98 724.22,199.66 782.54,214.71 840.04,229.49 885.73,241.25 935.32,254.01 968.17,262.51 999.40,270.57 1026.49,277.49 1038.54,280.58"/>
    </edge>
    <edge id="682.0" from="node_682_start" to="node_682_end" priority="-1" type="town" shape="4033.76,1058.11 4051.37,1062.66 4070.43,1067.57 4087.91,1072.05 4108.86,1077.43 4130.70,1083.02 4151.97,1088.54 4177.23,1095.01 4205.43,1102.24 4243.00,1111.84 4281.71,1121.75 4320.17,1131.73">
        <lane id="682.0_0" index="0" disallow="all" speed="13.89" length="294.08" width="3.66" shape="4039.32,1042.54 4055.48,1046.71 4074.53,1051.62 4092.00,1056.10 4112.95,1061.48 4134.81,1067.07 4156.08,1072.59 4181.32,1079.06 4209.51,1086.28 4247.08,1095.88 4285.82,1105.80 4324.15,1115.75" type="shoulder"/>
        <lane id="682.0_1" index="1" speed="13.89" length="294.08" width="3.66" shape="4038.41,1046.08 4054.57,1050.26 4073.62,1055.16 4091.09,1059.64 4112.04,1065.02 4133.90,1070.62 4155.17,1076.14 4180.41,1082.60 4208.61,1089.83 4246.17,1099.43 4284.91,1109.35 4323.23,1119.29"/>
        <lane id="682.0_2" index="2" speed="13.89" length="294.08" width="3.66" shape="4037.49,1049.62 4053.66,1053.80 4072.71,1058.71 4090.18,1063.19 4111.13,1068.57 4132.98,1074.16 4154.25,1079.68 4179.50,1086.15 4207.70,1093.38 4245.27,1102.98 4283.99,1112.89 4322.31,1122.83"/>
        <lane id="682.0_3" index="3" speed="13.89" length="294.08" width="3.66" shape="4036.58,1053.17 4052.74,1057.34 4071.80,1062.25 4089.27,1066.73 4110.22,1072.11 4132.07,1077.70 4153.34,1083.22 4178.59,1089.69 4206.79,1096.92 4244.36,1106.52 4283.08,1116.43 4321.39,1126.38"/>
        <lane id="682.0_4" index="4" disallow="all" speed="13.89" length="294.08" width="3.66" shape="4035.66,1056.71 4051.83,1060.89 4070.89,1065.80 4088.36,1070.28 4109.31,1075.66 4131.16,1081.25 4152.43,1086.77 4177.68,1093.24 4205.88,1100.47 4243.45,1110.07 4282.17,1119.98 4320.47,1129.92" type="shoulder"/>
    </edge>
    <edge id="685.0" from="node_685_start" to="node_682_start" priority="-1" type="town" shape="3956.20,1038.24 3977.04,1043.60 3997.47,1048.86 4018.24,1054.13 4033.76,1058.11">
        <lane id="685.0_0" index="0" speed="13.89" length="77.19" width="3.66" shape="3960.73,1026.18 3980.23,1031.19 4000.64,1036.45 4021.40,1041.72 4035.50,1045.33"/>
        <lane id="685.0_1" index="1" speed="13.89" length="77.19" width="3.66" shape="3959.81,1029.72 3979.32,1034.74 3999.74,1039.99 4020.50,1045.26 4034.59,1048.88"/>
        <lane id="685.0_2" index="2" speed="13.89" length="77.19" width="3.66" shape="3958.90,1033.27 3978.41,1038.28 3998.83,1043.54 4019.60,1048.81 4033.68,1052.42"/>
        <lane id="685.0_3" index="3" disallow="all" speed="13.89" length="77.19" width="3.66" shape="3957.99,1036.81 3977.50,1041.83 3997.92,1047.09 4018.69,1052.36 4032.77,1055.97" type="shoulder"/>
    </edge>
    <edge id="688.0" from="node_688_start" to="node_688_end" priority="-1" type="town">
        <lane id="688.0_0" index="0" disallow="all" speed="13.89" length="7.29" width="3.66" shape="8073.23,1845.35 8080.42,1846.50" type="shoulder"/>
        <lane id="688.0_1" index="1" speed="13.89" length="7.29" width="3.66" shape="8072.65,1848.97 8079.84,1850.12"/>
        <lane id="688.0_2" index="2" speed="13.89" length="7.29" width="3.66" shape="8072.07,1852.58 8079.27,1853.73"/>
        <lane id="688.0_3" index="3" speed="13.89" length="7.29" width="3.66" shape="8071.49,1856.19 8078.69,1857.35"/>
        <lane id="688.0_4" index="4" disallow="all" speed="13.89" length="7.29" width="3.66" shape="8070.91,1859.81 8078.11,1860.96" type="shoulder"/>
    </edge>
    <edge id="694.0" from="node_688_end" to="node_694_end" priority="-1" type="town" shape="8077.96,1862.79 8102.02,1866.68 8127.91,1870.78 8148.46,1874.11 8174.16,1878.27 8183.97,1879.84 8196.29,1881.79 8214.49,1884.73 8222.51,1885.93">
        <lane id="694.0_0" index="0" disallow="all" speed="13.89" length="146.14" width="3.66" shape="8080.73,1846.55 8104.62,1850.42 8130.51,1854.52 8151.09,1857.85 8176.78,1862.01 8186.56,1863.57 8198.90,1865.53 8217.06,1868.46 8224.95,1869.64" type="shoulder"/>
        <lane id="694.0_1" index="1" speed="13.89" length="146.14" width="3.66" shape="8080.15,1850.17 8104.04,1854.03 8129.93,1858.13 8150.51,1861.46 8176.20,1865.62 8185.98,1867.19 8198.32,1869.14 8216.49,1872.08 8224.41,1873.26"/>
        <lane id="694.0_2" index="2" speed="13.89" length="146.14" width="3.66" shape="8079.56,1853.78 8103.47,1857.64 8129.36,1861.74 8149.92,1865.08 8175.62,1869.24 8185.41,1870.80 8197.74,1872.76 8215.92,1875.69 8223.86,1876.88"/>
        <lane id="694.0_3" index="3" speed="13.89" length="146.14" width="3.66" shape="8078.98,1857.39 8102.89,1861.26 8128.78,1865.36 8149.34,1868.69 8175.03,1872.85 8184.83,1874.42 8197.16,1876.37 8215.35,1879.31 8223.32,1880.50"/>
        <lane id="694.0_4" index="4" disallow="all" speed="13.89" length="146.14" width="3.66" shape="8078.39,1861.01 8102.31,1864.87 8128.20,1868.97 8148.75,1872.30 8174.45,1876.46 8184.26,1878.03 8196.58,1879.98 8214.78,1882.92 8222.78,1884.12" type="shoulder"/>
    </edge>
    <edge id="695.0" from="node_695_start" to="node_695_end" priority="-1" type="town" shape="4328.12,1133.77 4355.16,1140.68 4378.41,1146.61 4400.31,1152.22 4421.92,1157.84 4440.41,1162.62 4457.72,1167.04 4480.78,1172.97 4502.49,1178.54 4522.55,1183.69 4542.20,1188.72 4561.96,1193.82 4588.06,1200.55 4603.65,1204.53">
        <lane id="695.0_0" index="0" disallow="all" speed="13.89" length="284.18" width="3.66" shape="4332.35,1117.85 4359.23,1124.72 4382.49,1130.65 4404.43,1136.27 4426.05,1141.90 4444.51,1146.67 4461.81,1151.09 4484.88,1157.02 4506.58,1162.59 4526.64,1167.74 4546.30,1172.77 4566.07,1177.87 4592.16,1184.60 4607.59,1188.54" type="shoulder"/>
        <lane id="695.0_1" index="1" speed="13.89" length="284.18" width="3.66" shape="4331.44,1121.40 4358.33,1128.27 4381.58,1134.20 4403.51,1139.82 4425.14,1145.44 4443.60,1150.21 4460.90,1154.63 4483.97,1160.56 4505.67,1166.13 4525.73,1171.28 4545.39,1176.31 4565.16,1181.42 4591.25,1188.14 4606.69,1192.08"/>
        <lane id="695.0_2" index="2" speed="13.89" length="284.18" width="3.66" shape="4330.54,1124.94 4357.42,1131.81 4380.68,1137.74 4402.60,1143.36 4424.22,1148.98 4442.69,1153.76 4459.99,1158.18 4483.06,1164.11 4504.76,1169.68 4524.82,1174.83 4544.48,1179.86 4564.25,1184.96 4590.34,1191.69 4605.78,1195.63"/>
        <lane id="695.0_3" index="3" speed="13.89" length="284.18" width="3.66" shape="4329.63,1128.49 4356.52,1135.36 4379.77,1141.29 4401.68,1146.90 4423.30,1152.53 4441.78,1157.30 4459.08,1161.72 4482.15,1167.65 4503.85,1173.22 4523.91,1178.37 4543.57,1183.40 4563.33,1188.50 4589.43,1195.23 4604.88,1199.18"/>
        <lane id="695.0_4" index="4" disallow="all" speed="13.89" length="284.18" width="3.66" shape="4328.72,1132.04 4355.61,1138.91 4378.86,1144.84 4400.77,1150.45 4422.38,1156.07 4440.87,1160.85 4458.17,1165.27 4481.24,1171.20 4502.94,1176.77 4523.00,1181.92 4542.66,1186.95 4562.42,1192.05 4588.52,1198.78 4603.97,1202.72" type="shoulder"/>
    </edge>
    <edge id="696.0" from="node_695_end" to="node_688_start" priority="-1" type="town" shape="4603.65,1204.53 4632.36,1211.96 4665.96,1220.58 4690.81,1226.94 4711.40,1232.18 4740.23,1239.63 4763.48,1245.61 4780.26,1249.91 4807.58,1256.91 4832.62,1263.33 4859.19,1270.21 4880.81,1275.71 4917.50,1285.18 4943.94,1291.97 4958.11,1295.59 4979.69,1301.14 4997.77,1305.80 5016.79,1310.68 5032.37,1314.67 5045.70,1318.11 5058.33,1321.35 5073.26,1325.20 5089.64,1329.38 5105.48,1333.46 5132.75,1340.46 5154.36,1346.03 5174.29,1351.11 5195.69,1356.63 5208.55,1359.93 5230.87,1365.63 5254.47,1371.68 5274.28,1376.78 5287.72,1380.25 5300.73,1383.57 5348.78,1395.83 5382.88,1404.40 5407.95,1410.67 5430.46,1416.14 5451.65,1421.23 5470.82,1425.81 5488.26,1429.91 5506.52,1434.12 5524.15,1438.13 5552.80,1444.50 5576.99,1449.87 5605.69,1456.20 5635.10,1462.41 5660.52,1467.79 5682.95,1472.44 5714.05,1478.72 5742.65,1484.37 5768.20,1489.37 5798.31,1495.03 5821.29,1499.29 5847.33,1504.00 5877.86,1509.40 5908.09,1514.64 5943.23,1520.51 5970.12,1524.98 5992.13,1528.57 6015.10,1532.18 6037.78,1535.84 6060.06,1539.41 6083.38,1543.17 6102.04,1546.17 6122.24,1549.43 6143.08,1552.73 6164.63,1556.19 6188.06,1559.96 6214.04,1564.12 6235.55,1567.56 6258.64,1571.31 6279.08,1574.65 6299.07,1577.75 6316.91,1580.62 6339.64,1584.28 6366.27,1588.55 6395.69,1593.24 6433.71,1599.32 6484.63,1607.49 6524.55,1613.91 6561.47,1619.64 6595.69,1625.24 6631.46,1631.00 6668.71,1636.99 6714.76,1644.38 6751.15,1650.16 6788.86,1656.17 6827.34,1662.35 6864.74,1668.39 6890.48,1672.49 6910.19,1675.68 6930.68,1678.93 6954.34,1682.73 6983.45,1687.39 7005.71,1690.98 7035.10,1695.56 7077.93,1702.44 7108.91,1707.45 7140.09,1712.47 7143.54,1712.68 7161.13,1715.52 7164.65,1716.37 7207.91,1723.37 7269.05,1733.16 7318.75,1741.09 7364.39,1748.41 7405.66,1755.10 7437.19,1760.15 7468.31,1765.13 7503.93,1770.84 7530.46,1775.09 7558.28,1779.56 7580.42,1783.09 7599.00,1786.05 7616.47,1788.88 7635.08,1791.89 7651.21,1794.46 7674.43,1798.18 7694.80,1801.41 7709.77,1803.83 7724.00,1806.13 7734.57,1807.84 7752.04,1810.63 7774.94,1814.32 7801.71,1818.53 7824.94,1822.25 7860.57,1827.97 7890.11,1832.67 7923.25,1838.01 7948.06,1841.96 7973.58,1845.95 8000.28,1850.32 8036.11,1856.05 8070.47,1861.59">
        <lane id="696.0_0" index="0" disallow="all" speed="13.89" length="3530.16" width="3.66" shape="4607.91,1188.62 4636.47,1196.01 4670.05,1204.63 4694.88,1210.98 4715.49,1216.23 4744.34,1223.68 4767.58,1229.66 4784.35,1233.96 4811.67,1240.96 4836.73,1247.38 4863.29,1254.26 4884.90,1259.76 4921.61,1269.23 4948.03,1276.02 4962.20,1279.64 4983.80,1285.19 5001.87,1289.85 5020.88,1294.73 5036.47,1298.72 5049.80,1302.16 5062.43,1305.40 5077.35,1309.25 5093.73,1313.43 5109.58,1317.51 5136.85,1324.51 5158.45,1330.08 5178.38,1335.16 5199.80,1340.68 5212.63,1343.97 5234.95,1349.67 5258.57,1355.73 5278.39,1360.83 5291.82,1364.30 5304.80,1367.61 5352.82,1379.86 5386.89,1388.42 5411.89,1394.68 5434.33,1400.13 5455.49,1405.21 5474.62,1409.78 5491.99,1413.87 5510.20,1418.07 5527.76,1422.06 5556.37,1428.42 5580.55,1433.79 5609.17,1440.10 5638.51,1446.30 5663.90,1451.67 5686.25,1456.30 5717.28,1462.57 5745.83,1468.21 5771.30,1473.19 5801.34,1478.84 5824.26,1483.09 5850.23,1487.79 5880.70,1493.18 5910.85,1498.40 5945.94,1504.26 5972.80,1508.73 5994.73,1512.31 6017.69,1515.91 6040.39,1519.58 6062.67,1523.15 6086.00,1526.91 6104.66,1529.91 6124.84,1533.17 6145.67,1536.47 6167.24,1539.93 6190.67,1543.70 6216.64,1547.86 6238.17,1551.30 6261.29,1555.05 6281.67,1558.38 6301.64,1561.48 6319.53,1564.36 6342.25,1568.02 6368.87,1572.29 6398.29,1576.98 6436.32,1583.06 6487.24,1591.23 6527.12,1597.64 6564.06,1603.38 6598.33,1608.98 6634.08,1614.74 6671.32,1620.73 6717.36,1628.12 6753.74,1633.89 6791.46,1639.91 6829.96,1646.09 6867.35,1652.13 6893.09,1656.23 6912.80,1659.42 6933.28,1662.67 6956.95,1666.47 6986.06,1671.13 7008.29,1674.71 7037.67,1679.29 7080.55,1686.18 7111.53,1691.19 7141.90,1696.08 7145.36,1696.29 7164.38,1699.36 7167.90,1700.21 7210.53,1707.11 7271.65,1716.90 7321.35,1724.83 7367.01,1732.15 7408.28,1738.84 7439.79,1743.89 7470.91,1748.87 7506.54,1754.58 7533.07,1758.83 7560.88,1763.30 7583.01,1766.83 7601.61,1769.79 7619.10,1772.62 7637.69,1775.63 7653.81,1778.20 7677.02,1781.92 7697.40,1785.15 7712.40,1787.57 7726.63,1789.87 7737.18,1791.58 7754.65,1794.37 7777.53,1798.05 7804.29,1802.26 7827.55,1805.99 7863.17,1811.71 7892.71,1816.41 7925.86,1821.75 7950.63,1825.69 7976.18,1829.69 8002.91,1834.06 8038.72,1839.79 8072.94,1845.31" type="shoulder"/>
        <lane id="696.0_1" index="1" speed="13.89" length="3530.16" width="3.66" shape="4606.99,1192.16 4635.56,1199.55 4669.14,1208.17 4693.98,1214.53 4714.58,1219.77 4743.43,1227.23 4766.67,1233.20 4783.44,1237.50 4810.76,1244.50 4835.82,1250.93 4862.38,1257.80 4883.99,1263.30 4920.70,1272.77 4947.12,1279.56 4961.29,1283.18 4982.88,1288.73 5000.96,1293.39 5019.97,1298.27 5035.56,1302.26 5048.89,1305.70 5061.52,1308.94 5076.44,1312.79 5092.82,1316.97 5108.67,1321.05 5135.94,1328.05 5157.54,1333.62 5177.47,1338.70 5198.88,1344.22 5211.72,1347.52 5234.05,1353.22 5257.66,1359.27 5277.48,1364.38 5290.91,1367.84 5303.90,1371.16 5351.92,1383.41 5386.00,1391.97 5411.02,1398.23 5433.47,1403.69 5454.63,1408.77 5473.78,1413.35 5491.16,1417.43 5509.38,1421.63 5526.96,1425.63 5555.58,1431.99 5579.76,1437.36 5608.39,1443.68 5637.75,1449.88 5663.15,1455.25 5685.52,1459.89 5716.56,1466.16 5745.12,1471.80 5770.61,1476.79 5800.66,1482.44 5823.60,1486.69 5849.59,1491.39 5880.07,1496.78 5910.24,1502.01 5945.34,1507.87 5972.20,1512.34 5994.16,1515.92 6017.11,1519.53 6039.81,1523.19 6062.09,1526.76 6085.42,1530.52 6104.08,1533.52 6124.26,1536.78 6145.10,1540.08 6166.66,1543.54 6190.09,1547.31 6216.06,1551.47 6237.59,1554.91 6260.70,1558.67 6281.09,1562.00 6301.07,1565.10 6318.95,1567.97 6341.67,1571.63 6368.29,1575.90 6397.71,1580.59 6435.74,1586.67 6486.66,1594.84 6526.55,1601.26 6563.49,1606.99 6597.74,1612.60 6633.50,1618.35 6670.74,1624.34 6716.78,1631.73 6753.16,1637.51 6790.88,1643.52 6829.38,1649.70 6866.77,1655.74 6892.51,1659.84 6912.22,1663.03 6932.70,1666.28 6956.37,1670.08 6985.48,1674.74 7007.72,1678.33 7037.10,1682.91 7079.97,1689.79 7110.95,1694.80 7141.50,1699.72 7144.95,1699.93 7163.66,1702.95 7167.18,1703.80 7209.95,1710.72 7271.07,1720.51 7320.77,1728.44 7366.43,1735.76 7407.70,1742.45 7439.22,1747.50 7470.34,1752.48 7505.96,1758.19 7532.49,1762.44 7560.31,1766.91 7582.44,1770.44 7601.03,1773.40 7618.52,1776.23 7637.11,1779.24 7653.23,1781.81 7676.45,1785.53 7696.82,1788.76 7711.81,1791.18 7726.04,1793.48 7736.60,1795.19 7754.07,1797.98 7776.95,1801.67 7803.72,1805.88 7826.97,1809.60 7862.59,1815.32 7892.14,1820.02 7925.28,1825.36 7950.06,1829.31 7975.60,1833.30 8002.33,1837.67 8038.14,1843.40 8072.36,1848.92"/>