<?xml version="1.0" encoding="UTF-8"?>

<!-- generated on 2025-10-19 17:35:18 by Eclipse SUMO netconvert Version 1.23.1
<netconvertConfiguration xmlns:xsi="http://www.w3.org/2001/XMLSchema-instance" xsi:noNamespaceSchemaLocation="http://sumo.dlr.de/xsd/netconvertConfiguration.xsd">

    <input>
        <node-files value="/home/sdai/harry/TeraSim/jupiter/eb/jupiter_eb_tiles/tile_0134/tile_0134.nod.xml"/>
        <edge-files value="/home/sdai/harry/TeraSim/jupiter/eb/jupiter_eb_tiles/tile_0134/tile_0134.edg.xml"/>
        <connection-files value="/home/sdai/harry/TeraSim/jupiter/eb/jupiter_eb_tiles/tile_0134/tile_0134.con.xml"/>
    </input>

    <output>
        <output-file value="/home/sdai/harry/TeraSim/jupiter/eb/jupiter_eb_tiles/tile_0134/tile_0134.net.xml"/>
        <output.street-names value="true"/>
        <output.original-names value="true"/>
    </output>

    <processing>
        <geometry.remove value="false"/>
        <geometry.min-dist value="0.5"/>
        <edges.join value="false"/>
    </processing>

    <junctions>
        <no-internal-links value="false"/>
        <no-turnarounds value="true"/>
        <junctions.join value="true"/>
        <junctions.join-dist value="10"/>
        <junctions.corner-detail value="5"/>
        <junctions.internal-link-detail value="5"/>
        <junctions.limit-turn-speed value="5.5"/>
        <rectangular-lane-cut value="true"/>
        <check-lane-foes.all value="true"/>
    </junctions>

</netconvertConfiguration>
-->

<net version="1.20" junctionCornerDetail="5" junctionLinkDetail="5" rectangularLaneCut="true" limitTurnSpeed="5.50" checkLaneFoesAll="1" xmlns:xsi="http://www.w3.org/2001/XMLSchema-instance" xsi:noNamespaceSchemaLocation="http://sumo.dlr.de/xsd/net_file.xsd">

    <location netOffset="-772771.48,-3295519.14" convBoundary="0.00,0.00,8917.86,2022.67" origBoundary="0.00,0.00,781745.35,3297541.81" projParameter="!"/>

    <edge id=":j_merge_end_42_0" function="internal">
        <lane id=":j_merge_end_42_0_0" index="0" disallow="all" speed="13.89" length="43.96" width="3.66" shape="2447.41,514.74 2458.85,522.08 2464.32,530.87 2469.77,539.67 2481.21,547.04"/>
        <lane id=":j_merge_end_42_0_1" index="1" speed="13.89" length="43.96" width="3.66" shape="2444.85,521.60 2485.07,536.76"/>
        <lane id=":j_merge_end_42_0_2" index="2" speed="13.89" length="43.96" width="3.66" shape="2443.57,525.03 2483.78,540.19"/>
        <lane id=":j_merge_end_42_0_3" index="3" speed="13.89" length="43.96" width="3.66" shape="2442.29,528.46 2482.49,543.61"/>
        <lane id=":j_merge_end_42_0_4" index="4" disallow="all" speed="13.89" length="43.96" width="3.66" shape="2441.01,531.89 2481.21,547.04"/>
    </edge>
    <edge id=":j_merge_end_43_0" function="internal">
        <lane id=":j_merge_end_43_0_0" index="0" disallow="all" speed="13.89" length="36.09" width="3.66" shape="6470.49,1936.31 6481.22,1940.06 6487.16,1946.83 6493.11,1953.58 6503.84,1957.27"/>
        <lane id=":j_merge_end_43_0_1" index="1" speed="13.89" length="36.09" width="3.66" shape="6469.89,1943.60 6504.68,1946.32"/>
        <lane id=":j_merge_end_43_0_2" index="2" speed="13.89" length="36.09" width="3.66" shape="6469.59,1947.25 6504.40,1949.97"/>
        <lane id=":j_merge_end_43_0_3" index="3" speed="13.89" length="36.09" width="3.66" shape="6469.28,1950.90 6504.12,1953.62"/>
        <lane id=":j_merge_end_43_0_4" index="4" disallow="all" speed="13.89" length="36.09" width="3.66" shape="6468.98,1954.55 6503.84,1957.27"/>
    </edge>
    <edge id=":j_merge_start_42_0" function="internal">
        <lane id=":j_merge_start_42_0_0" index="0" speed="13.89" length="85.28" width="3.66" shape="2057.59,363.98 2067.62,368.94 2087.79,377.87 2112.44,388.25 2135.95,397.56"/>
    </edge>
    <edge id=":j_merge_start_42_1" function="internal">
        <lane id=":j_merge_start_42_1_0" index="0" speed="13.89" length="86.29" width="3.66" shape="2052.59,374.02 2133.37,404.41"/>
        <lane id=":j_merge_start_42_1_1" index="1" speed="13.89" length="86.29" width="3.66" shape="2051.31,377.45 2132.08,407.84"/>
        <lane id=":j_merge_start_42_1_2" index="2" speed="13.89" length="86.29" width="3.66" shape="2050.03,380.88 2130.79,411.26"/>
        <lane id=":j_merge_start_42_1_3" index="3" disallow="all" speed="13.89" length="86.29" width="3.66" shape="2048.74,384.31 2129.50,414.69"/>
    </edge>
    <edge id=":j_merge_start_43_0" function="internal">
        <lane id=":j_merge_start_43_0_0" index="0" speed="13.89" length="68.95" width="3.66" shape="6328.72,1920.98 6397.07,1930.07"/>
    </edge>
    <edge id=":j_merge_start_43_1" function="internal">
        <lane id=":j_merge_start_43_1_0" index="0" speed="13.89" length="68.97" width="3.66" shape="6327.84,1930.81 6396.44,1937.36"/>
        <lane id=":j_merge_start_43_1_1" index="1" speed="13.89" length="68.97" width="3.66" shape="6327.48,1934.45 6396.12,1941.00"/>
        <lane id=":j_merge_start_43_1_2" index="2" speed="13.89" length="68.97" width="3.66" shape="6327.11,1938.10 6395.80,1944.65"/>
        <lane id=":j_merge_start_43_1_3" index="3" disallow="all" speed="13.89" length="68.97" width="3.66" shape="6326.75,1941.74 6395.48,1948.30"/>
    </edge>
    <edge id=":junction_100_0" function="internal">
        <lane id=":junction_100_0_0" index="0" speed="13.89" length="117.60" width="3.66" shape="4411.37,1617.58 4436.97,1629.39 4472.08,1644.14 4503.94,1656.99 4519.77,1663.11"/>
    </edge>
    <edge id=":junction_100_1" function="internal">
        <lane id=":junction_100_1_0" index="0" speed="13.89" length="119.21" width="3.66" shape="4411.37,1617.58 4434.94,1629.17 4466.60,1643.87 4497.61,1657.75 4519.21,1666.89"/>
        <lane id=":junction_100_1_1" index="1" speed="13.89" length="119.21" width="3.66" shape="4409.67,1620.82 4433.29,1632.43 4465.09,1647.19 4496.22,1661.13 4517.88,1670.29"/>
        <lane id=":junction_100_1_2" index="2" speed="13.89" length="119.21" width="3.66" shape="4407.97,1624.06 4431.65,1635.70 4463.57,1650.52 4494.83,1664.51 4516.55,1673.70"/>
        <lane id=":junction_100_1_3" index="3" disallow="all" speed="13.89" length="119.21" width="3.66" shape="4406.26,1627.30 4430.00,1638.97 4462.05,1653.84 4493.44,1667.90 4515.22,1677.11"/>
    </edge>
    <edge id=":junction_101_0" function="internal">
        <lane id=":junction_101_0_0" index="0" speed="13.89" length="117.94" width="3.66" shape="2973.44,716.71 3085.84,752.45"/>
    </edge>
    <edge id=":junction_101_1" function="internal">
        <lane id=":junction_101_1_0" index="0" speed="13.89" length="119.09" width="3.66" shape="2972.16,720.14 3083.63,762.09"/>
        <lane id=":junction_101_1_1" index="1" speed="13.89" length="119.09" width="3.66" shape="2970.87,723.56 3082.33,765.51"/>
        <lane id=":junction_101_1_2" index="2" speed="13.89" length="119.09" width="3.66" shape="2969.59,726.99 3081.03,768.94"/>
        <lane id=":junction_101_1_3" index="3" disallow="all" speed="13.89" length="119.09" width="3.66" shape="2968.30,730.42 3079.74,772.36"/>
    </edge>
    <edge id=":junction_103_0" function="internal">
        <lane id=":junction_103_0_0" index="0" speed="13.89" length="125.79" width="3.66" shape="7241.34,1989.33 7367.11,1991.64"/>
    </edge>
    <edge id=":junction_103_1" function="internal">
        <lane id=":junction_103_1_0" index="0" speed="13.89" length="126.82" width="3.66" shape="7241.12,1992.98 7367.71,2000.98"/>
        <lane id=":junction_103_1_1" index="1" speed="13.89" length="126.82" width="3.66" shape="7240.89,1996.64 7367.47,2004.63"/>
        <lane id=":junction_103_1_2" index="2" speed="13.89" length="126.82" width="3.66" shape="7240.67,2000.29 7367.23,2008.28"/>
        <lane id=":junction_103_1_3" index="3" disallow="all" speed="13.89" length="126.82" width="3.66" shape="7240.44,2003.94 7366.99,2011.93"/>
    </edge>
    <edge id=":junction_41_0" function="internal">
        <lane id=":junction_41_0_0" index="0" speed="13.89" length="97.60" width="3.66" shape="309.83,28.13 406.02,12.69"/>
        <lane id=":junction_41_0_1" index="1" speed="13.89" length="97.60" width="3.66" shape="309.83,28.13 406.65,16.30"/>
        <lane id=":junction_41_0_2" index="2" speed="13.89" length="97.60" width="3.66" shape="309.83,28.13 323.66,27.03 351.16,25.27 382.36,22.88 407.29,19.90"/>
    </edge>
    <edge id=":junction_98_0" function="internal">
        <lane id=":junction_98_0_0" index="0" speed="13.89" length="105.59" width="3.66" shape="1062.70,23.98 1166.20,44.87"/>
    </edge>
    <edge id=":junction_98_1" function="internal">
        <lane id=":junction_98_1_0" index="0" speed="13.89" length="105.82" width="3.66" shape="1062.70,23.98 1165.97,48.72"/>
        <lane id=":junction_98_1_1" index="1" speed="13.89" length="105.82" width="3.66" shape="1061.98,27.57 1165.01,52.25"/>
        <lane id=":junction_98_1_2" index="2" speed="13.89" length="105.82" width="3.66" shape="1061.27,31.16 1164.05,55.78"/>
        <lane id=":junction_98_1_3" index="3" disallow="all" speed="13.89" length="105.82" width="3.66" shape="1060.55,34.75 1163.08,59.31"/>
    </edge>
    <edge id=":node_743_end_0" function="internal">
        <lane id=":node_743_end_0_0" index="0" speed="13.89" length="0.30" width="3.66" shape="4162.37,1442.50 4162.59,1442.70"/>
        <lane id=":node_743_end_0_1" index="1" speed="13.89" length="0.30" width="3.66" shape="4159.90,1445.20 4160.12,1445.40"/>
        <lane id=":node_743_end_0_2" index="2" speed="13.89" length="0.30" width="3.66" shape="4157.43,1447.90 4157.65,1448.10"/>
    </edge>
    <edge id=":node_743_start_0" function="internal">
        <lane id=":node_743_start_0_0" index="0" speed="13.89" length="0.30" width="3.66" shape="4157.39,1437.94 4157.58,1438.12"/>
        <lane id=":node_743_start_0_1" index="1" speed="13.89" length="0.30" width="3.66" shape="4154.89,1440.62 4155.11,1440.82"/>
        <lane id=":node_743_start_0_2" index="2" speed="13.89" length="0.30" width="3.66" shape="4152.39,1443.29 4152.64,1443.52"/>
    </edge>
    <edge id=":node_744_end_0" function="internal">
        <lane id=":node_744_end_0_0" index="0" speed="13.89" length="0.30" width="3.66" shape="1490.10,162.22 1490.35,162.32"/>
        <lane id=":node_744_end_0_1" index="1" speed="13.89" length="0.30" width="3.66" shape="1488.78,165.64 1489.06,165.74"/>
        <lane id=":node_744_end_0_2" index="2" speed="13.89" length="0.30" width="3.66" shape="1487.47,169.05 1487.77,169.17"/>
    </edge>
    <edge id=":node_744_start_0" function="internal">
        <lane id=":node_744_start_0_0" index="0" speed="13.89" length="3.00" width="3.66" shape="1430.33,139.69 1433.15,140.75"/>
        <lane id=":node_744_start_0_1" index="1" speed="13.89" length="3.00" width="3.66" shape="1429.05,143.12 1431.86,144.17"/>
        <lane id=":node_744_start_0_2" index="2" speed="13.89" length="3.00" width="3.66" shape="1427.77,146.54 1430.57,147.60"/>
    </edge>
    <edge id=":node_745_end_0" function="internal">
        <lane id=":node_745_end_0_0" index="0" speed="13.89" length="0.37" width="3.66" shape="2573.41,566.10 2573.67,566.19"/>
        <lane id=":node_745_end_0_1" index="1" speed="13.89" length="0.37" width="3.66" shape="2572.12,569.52 2572.44,569.64"/>
        <lane id=":node_745_end_0_2" index="2" speed="13.89" length="0.37" width="3.66" shape="2570.83,572.95 2571.21,573.09"/>
        <lane id=":node_745_end_0_3" index="3" speed="13.89" length="0.37" width="3.66" shape="2569.55,576.37 2569.98,576.53"/>
    </edge>
    <edge id=":node_747_end_0" function="internal">
        <lane id=":node_747_end_0_0" index="0" speed="13.89" length="0.30" width="3.66" shape="5585.89,1874.33 5586.19,1874.35"/>
        <lane id=":node_747_end_0_1" index="1" speed="13.89" length="0.30" width="3.66" shape="5585.65,1877.98 5585.95,1878.00"/>
        <lane id=":node_747_end_0_2" index="2" speed="13.89" length="0.30" width="3.66" shape="5585.41,1881.63 5585.72,1881.65"/>
    </edge>
    <edge id=":node_747_start_0" function="internal">
        <lane id=":node_747_start_0_0" index="0" speed="13.89" length="0.30" width="3.66" shape="5522.78,1870.33 5523.07,1870.35"/>
        <lane id=":node_747_start_0_1" index="1" speed="13.89" length="0.30" width="3.66" shape="5522.54,1873.98 5522.84,1874.00"/>
        <lane id=":node_747_start_0_2" index="2" speed="13.89" length="0.30" width="3.66" shape="5522.30,1877.63 5522.61,1877.65"/>
    </edge>
    <edge id=":node_748_start_0" function="internal">
        <lane id=":node_748_start_0_0" index="0" speed="13.89" length="0.30" width="3.66" shape="1535.82,179.49 1536.12,179.61"/>
        <lane id=":node_748_start_0_1" index="1" speed="13.89" length="0.30" width="3.66" shape="1534.53,182.91 1534.80,183.02"/>
        <lane id=":node_748_start_0_2" index="2" speed="13.89" length="0.30" width="3.66" shape="1533.23,186.33 1533.48,186.43"/>
    </edge>
    <edge id=":node_749_start_0" function="internal">
        <lane id=":node_749_start_0_0" index="0" speed="13.89" length="2.99" width="3.66" shape="4595.25,1693.98 4598.07,1694.88"/>
        <lane id=":node_749_start_0_1" index="1" speed="13.89" length="2.99" width="3.66" shape="4594.12,1697.46 4596.97,1698.38"/>
        <lane id=":node_749_start_0_2" index="2" speed="13.89" length="2.99" width="3.66" shape="4592.98,1700.94 4595.87,1701.87"/>
    </edge>
    <edge id=":node_750_end_0" function="internal">
        <lane id=":node_750_end_0_0" index="0" speed="13.89" length="0.30" width="3.66" shape="7150.73,1983.67 7151.02,1983.69"/>
        <lane id=":node_750_end_0_1" index="1" speed="13.89" length="0.30" width="3.66" shape="7150.50,1987.33 7150.80,1987.34"/>
        <lane id=":node_750_end_0_2" index="2" speed="13.89" length="0.30" width="3.66" shape="7150.27,1990.98 7150.57,1991.00"/>
        <lane id=":node_750_end_0_3" index="3" speed="13.89" length="0.30" width="3.66" shape="7150.04,1994.63 7150.34,1994.65"/>
    </edge>
    <edge id=":node_750_start_0" function="internal">
        <lane id=":node_750_start_0_0" index="0" speed="13.89" length="0.30" width="3.66" shape="6581.37,1947.88 6581.67,1947.90"/>
        <lane id=":node_750_start_0_1" index="1" speed="13.89" length="0.30" width="3.66" shape="6581.14,1951.54 6581.44,1951.55"/>
        <lane id=":node_750_start_0_2" index="2" speed="13.89" length="0.30" width="3.66" shape="6580.91,1955.19 6581.21,1955.21"/>
        <lane id=":node_750_start_0_3" index="3" speed="13.89" length="0.30" width="3.66" shape="6580.68,1958.84 6580.98,1958.86"/>
    </edge>
    <edge id=":node_754_end_0" function="internal">
        <lane id=":node_754_end_0_0" index="0" speed="13.89" length="0.30" width="3.66" shape="6238.72,1922.06 6239.02,1922.09"/>
        <lane id=":node_754_end_0_1" index="1" speed="13.89" length="0.30" width="3.66" shape="6238.36,1925.70 6238.66,1925.73"/>
        <lane id=":node_754_end_0_2" index="2" speed="13.89" length="0.30" width="3.66" shape="6238.01,1929.34 6238.30,1929.37"/>
    </edge>
    <edge id=":node_754_start_0" function="internal">
        <lane id=":node_754_start_0_0" index="0" speed="13.89" length="0.30" width="3.66" shape="6190.18,1917.37 6190.46,1917.39"/>
        <lane id=":node_754_start_0_1" index="1" speed="13.89" length="0.30" width="3.66" shape="6189.82,1921.01 6190.12,1921.04"/>
        <lane id=":node_754_start_0_2" index="2" speed="13.89" length="0.30" width="3.66" shape="6189.46,1924.65 6189.77,1924.68"/>
    </edge>
    <edge id=":node_756_end_0" function="internal">
        <lane id=":node_756_end_0_0" index="0" speed="13.89" length="0.30" width="3.66" shape="5833.49,1889.91 5833.80,1889.93"/>
        <lane id=":node_756_end_0_1" index="1" speed="13.89" length="0.30" width="3.66" shape="5833.26,1893.56 5833.56,1893.58"/>
        <lane id=":node_756_end_0_2" index="2" speed="13.89" length="0.30" width="3.66" shape="5833.04,1897.21 5833.32,1897.23"/>
    </edge>
    <edge id=":node_758_start_0" function="internal">
        <lane id=":node_758_start_0_0" index="0" speed="13.89" length="0.30" width="3.66" shape="5927.80,1895.91 5928.10,1895.93"/>
        <lane id=":node_758_start_0_1" index="1" speed="13.89" length="0.30" width="3.66" shape="5927.56,1899.56 5927.86,1899.58"/>
        <lane id=":node_758_start_0_2" index="2" speed="13.89" length="0.30" width="3.66" shape="5927.31,1903.21 5927.62,1903.23"/>
    </edge>
    <edge id=":node_759_end_0" function="internal">
        <lane id=":node_759_end_0_0" index="0" speed="13.89" length="0.30" width="3.66" shape="3922.64,1209.17 3922.86,1209.39"/>
        <lane id=":node_759_end_0_1" index="1" speed="13.89" length="0.30" width="3.66" shape="3920.08,1211.79 3920.29,1212.00"/>
        <lane id=":node_759_end_0_2" index="2" speed="13.89" length="0.30" width="3.66" shape="3917.52,1214.41 3917.73,1214.62"/>
    </edge>
    <edge id=":node_760_start_0" function="internal">
        <lane id=":node_760_start_0_0" index="0" speed="13.89" length="0.30" width="3.66" shape="2880.43,681.64 2880.71,681.74"/>
        <lane id=":node_760_start_0_1" index="1" speed="13.89" length="0.30" width="3.66" shape="2879.14,685.06 2879.42,685.17"/>
        <lane id=":node_760_start_0_2" index="2" speed="13.89" length="0.30" width="3.66" shape="2877.85,688.49 2878.13,688.59"/>
        <lane id=":node_760_start_0_3" index="3" speed="13.89" length="0.30" width="3.66" shape="2876.56,691.91 2876.84,692.02"/>
    </edge>
    <edge id=":node_762_start_0" function="internal">
        <lane id=":node_762_start_0_0" index="0" speed="13.89" length="0.15" width="3.66" shape="3952.80,1238.61 3952.95,1238.76"/>
        <lane id=":node_762_start_0_1" index="1" speed="13.89" length="0.15" width="3.66" shape="3950.26,1241.25 3950.37,1241.36"/>
        <lane id=":node_762_start_0_2" index="2" speed="13.89" length="0.15" width="3.66" shape="3947.72,1243.89 3947.78,1243.95"/>
    </edge>
    <edge id=":node_773_end_0" function="internal">
        <lane id=":node_773_end_0_0" index="0" speed="13.89" length="0.30" width="3.66" shape="4599.30,1684.96 4599.59,1685.03"/>
    </edge>
    <edge id=":node_783_end_0" function="internal">
        <lane id=":node_783_end_0_0" index="0" speed="13.89" length="3.00" width="3.66" shape="7197.24,1986.59 7200.23,1986.78"/>
        <lane id=":node_783_end_0_1" index="1" speed="13.89" length="3.00" width="3.66" shape="7197.01,1990.24 7200.00,1990.43"/>
        <lane id=":node_783_end_0_2" index="2" speed="13.89" length="3.00" width="3.66" shape="7196.78,1993.89 7199.77,1994.08"/>
        <lane id=":node_783_end_0_3" index="3" speed="13.89" length="3.00" width="3.66" shape="7196.55,1997.55 7199.54,1997.73"/>
    </edge>
    <edge id=":node_786_end_0" function="internal">
        <lane id=":node_786_end_0_0" index="0" speed="13.89" length="0.30" width="3.66" shape="7913.00,1983.71 7913.29,1983.68"/>
        <lane id=":node_786_end_0_1" index="1" speed="13.89" length="0.30" width="3.66" shape="7913.42,1987.35 7913.71,1987.31"/>
        <lane id=":node_786_end_0_2" index="2" speed="13.89" length="0.30" width="3.66" shape="7913.83,1990.98 7914.14,1990.95"/>
    </edge>
    <edge id=":node_786_start_0" function="internal">
        <lane id=":node_786_start_0_0" index="0" speed="13.89" length="0.10" width="3.66" shape="7842.18,1991.75 7842.18,1991.75"/>
        <lane id=":node_786_start_0_1" index="1" speed="13.89" length="0.10" width="3.66" shape="7842.60,1995.38 7842.60,1995.38"/>
        <lane id=":node_786_start_0_2" index="2" speed="13.89" length="0.10" width="3.66" shape="7843.02,1999.02 7843.02,1999.02"/>
    </edge>

    <edge id="707.0" from="junction_41" to="junction_98" priority="-1" type="town" shape="408.24,25.31 412.21,24.61 439.44,20.17 470.31,15.73 493.87,12.72 503.64,11.60 516.86,10.10 542.19,7.56 562.20,5.81 583.37,4.19 602.77,2.96 622.46,1.93 643.69,1.11 663.08,0.52 684.81,0.08 707.32,0.00 731.34,0.21 756.06,0.84 776.03,1.54 795.38,2.38 818.17,3.82 835.57,4.99 855.65,6.61 870.96,7.99 889.56,9.90 911.47,12.33 936.11,15.36 957.99,18.48 989.21,23.32 1017.68,28.20 1043.35,33.18 1060.19,36.54">
        <lane id="707.0_0" index="0" disallow="all" speed="13.89" length="659.28" width="3.66" shape="405.38,9.09 409.46,8.37 436.94,3.89 468.09,-0.59 491.89,-3.63 501.78,-4.76 515.11,-6.28 540.65,-8.84 560.86,-10.61 582.22,-12.24 601.82,-13.48 621.71,-14.52 643.12,-15.35 662.66,-15.94 684.62,-16.39 707.36,-16.47 731.62,-16.26 756.56,-15.62 776.68,-14.92 796.26,-14.07 819.24,-12.62 836.79,-11.44 857.05,-9.80 872.54,-8.40 891.31,-6.48 913.38,-4.03 938.28,-0.97 960.42,2.19 991.86,7.06 1020.64,12.00 1046.52,17.02 1063.41,20.39" type="shoulder"/>
        <lane id="707.0_1" index="1" speed="13.89" length="659.28" width="3.66" shape="406.02,12.69 410.07,11.98 437.50,7.51 468.59,3.04 492.33,0.00 502.19,-1.13 515.50,-2.64 540.99,-5.19 561.15,-6.96 582.48,-8.59 602.03,-9.83 621.88,-10.87 643.25,-11.69 662.76,-12.29 684.66,-12.73 707.35,-12.81 731.56,-12.60 756.45,-11.96 776.53,-11.26 796.06,-10.41 819.00,-8.96 836.52,-7.79 856.74,-6.15 872.19,-4.76 890.92,-2.84 912.96,-0.39 937.80,2.66 959.88,5.81 991.27,10.68 1019.98,15.60 1045.82,20.61 1062.70,23.98"/>
        <lane id="707.0_2" index="2" speed="13.89" length="659.28" width="3.66" shape="406.65,16.30 410.68,15.59 438.05,11.13 469.08,6.66 492.77,3.64 502.60,2.51 515.89,1.00 541.34,-1.55 561.45,-3.31 582.73,-4.94 602.24,-6.17 622.05,-7.21 643.38,-8.03 662.85,-8.63 684.70,-9.07 707.34,-9.15 731.50,-8.94 756.34,-8.31 776.39,-7.60 795.87,-6.76 818.76,-5.31 836.25,-4.14 856.43,-2.51 871.84,-1.12 890.53,0.80 912.53,3.24 937.32,6.29 959.34,9.43 990.68,14.29 1019.33,19.20 1045.11,24.20 1061.98,27.57"/>
        <lane id="707.0_3" index="3" speed="13.89" length="659.28" width="3.66" shape="407.29,19.90 411.29,19.20 438.61,14.74 469.57,10.29 493.21,7.27 503.02,6.15 516.28,4.64 541.68,2.09 561.75,0.34 582.99,-1.29 602.45,-2.52 622.21,-3.55 643.50,-4.38 662.94,-4.97 684.75,-5.41 707.34,-5.49 731.43,-5.28 756.23,-4.65 776.25,-3.95 795.67,-3.10 818.53,-1.66 835.98,-0.49 856.12,1.14 871.49,2.53 890.14,4.44 912.11,6.88 936.83,9.92 958.80,13.05 990.10,17.90 1018.67,22.80 1044.41,27.79 1061.27,31.16"/>
        <lane id="707.0_4" index="4" disallow="all" speed="13.89" length="659.28" width="3.66" shape="407.92,23.51 411.90,22.81 439.16,18.36 470.06,13.92 493.65,10.90 503.43,9.78 516.67,8.28 542.02,5.74 562.05,3.99 583.24,2.36 602.67,1.13 622.38,0.10 643.63,-0.72 663.03,-1.31 684.79,-1.75 707.33,-1.83 731.37,-1.62 756.12,-0.99 776.10,-0.29 795.48,0.55 818.29,1.99 835.71,3.16 855.81,4.79 871.14,6.17 889.76,8.08 911.68,10.51 936.35,13.55 958.26,16.67 989.51,21.51 1018.01,26.40 1043.70,31.38 1060.55,34.75" type="shoulder"/>
    </edge>
    <edge id="726.0" from="node_726_start" to="junction_41" priority="-1" type="town" shape="0.00,111.04 9.55,108.92 22.41,105.88 35.40,102.61 46.55,99.73 57.11,96.74 65.38,94.33 73.76,91.78 84.94,88.29 94.04,85.46 101.00,83.27 109.47,80.65 127.14,75.25 146.58,69.61 169.57,63.12 188.36,58.06 206.78,53.30 228.53,47.90 248.58,43.15 265.42,39.35 284.57,35.20 301.32,31.71 310.19,29.92">
        <lane id="726.0_0" index="0" speed="13.89" length="320.82" width="3.66" shape="-0.40,109.25 9.14,107.14 21.98,104.10 34.95,100.84 46.07,97.96 56.61,94.98 64.86,92.58 73.22,90.03 84.40,86.54 93.50,83.71 100.46,81.52 108.93,78.90 126.62,73.50 146.08,67.85 169.08,61.36 187.89,56.29 206.33,51.53 228.10,46.12 248.17,41.37 265.03,37.56 284.19,33.41 300.95,29.92 309.83,28.13"/>
    </edge>
    <edge id="743.0" from="node_743_start" to="node_743_end" priority="-1" type="town">
        <lane id="743.0_0" index="0" disallow="all" speed="13.89" length="6.49" width="3.66" shape="4160.05,1435.42 4164.84,1439.80" type="shoulder"/>
        <lane id="743.0_1" index="1" speed="13.89" length="6.49" width="3.66" shape="4157.58,1438.12 4162.37,1442.50"/>
        <lane id="743.0_2" index="2" speed="13.89" length="6.49" width="3.66" shape="4155.11,1440.82 4159.90,1445.20"/>
        <lane id="743.0_3" index="3" speed="13.89" length="6.49" width="3.66" shape="4152.64,1443.52 4157.43,1447.90"/>
        <lane id="743.0_4" index="4" disallow="all" speed="13.89" length="6.49" width="3.66" shape="4150.17,1446.22 4154.96,1450.60" type="shoulder"/>
    </edge>
    <edge id="744.0" from="node_744_start" to="node_744_end" priority="-1" type="town" shape="1427.24,152.21 1445.17,158.95 1463.13,165.72 1482.39,172.98 1485.66,174.24">
        <lane id="744.0_0" index="0" disallow="all" speed="13.89" length="60.84" width="3.66" shape="1434.44,137.32 1450.97,143.54 1468.94,150.31 1488.22,157.57 1491.41,158.81" type="shoulder"/>
        <lane id="744.0_1" index="1" speed="13.89" length="60.84" width="3.66" shape="1433.15,140.75 1449.68,146.96 1467.65,153.73 1486.92,161.00 1490.10,162.22"/>
        <lane id="744.0_2" index="2" speed="13.89" length="60.84" width="3.66" shape="1431.86,144.17 1448.39,150.39 1466.36,157.16 1485.63,164.42 1488.78,165.64"/>
        <lane id="744.0_3" index="3" speed="13.89" length="60.84" width="3.66" shape="1430.57,147.60 1447.11,153.81 1465.07,160.58 1484.33,167.84 1487.47,169.05"/>
        <lane id="744.0_4" index="4" disallow="all" speed="13.89" length="60.84" width="3.66" shape="1429.28,151.02 1445.82,157.24 1463.78,164.01 1483.04,171.27 1486.15,172.47" type="shoulder"/>
    </edge>
    <edge id="745.0" from="j_merge_end_42" to="node_745_end" priority="-1" type="town" shape="2480.56,548.75 2507.27,558.80 2529.73,567.25 2553.42,576.18 2567.87,581.61">
        <lane id="745.0_0" index="0" disallow="all" speed="13.89" length="93.01" width="3.66" shape="2487.65,529.91 2514.36,539.96 2536.83,548.41 2560.51,557.34 2574.70,562.67" type="shoulder"/>
        <lane id="745.0_1" index="1" speed="13.89" length="93.01" width="3.66" shape="2486.36,533.34 2513.07,543.38 2535.54,551.84 2559.22,560.77 2573.41,566.10"/>
        <lane id="745.0_2" index="2" speed="13.89" length="93.01" width="3.66" shape="2485.07,536.76 2511.78,546.81 2534.25,555.26 2557.93,564.19 2572.12,569.52"/>
        <lane id="745.0_3" index="3" speed="13.89" length="93.01" width="3.66" shape="2483.78,540.19 2510.49,550.24 2532.96,558.69 2556.65,567.62 2570.83,572.95"/>
        <lane id="745.0_4" index="4" speed="13.89" length="93.01" width="3.66" shape="2482.49,543.61 2509.20,553.66 2531.67,562.11 2555.36,571.04 2569.55,576.37"/>
        <lane id="745.0_5" index="5" disallow="all" speed="13.89" length="93.01" width="3.66" shape="2481.21,547.04 2507.92,557.09 2530.38,565.54 2554.07,574.47 2568.26,579.80" type="shoulder"/>
    </edge>
    <edge id="746.0" from="junction_98" to="node_744_start" priority="-1" type="town" shape="1161.50,60.78 1177.20,65.06 1194.87,70.16 1213.52,75.71 1234.86,82.31 1251.50,87.76 1266.20,92.66 1283.04,98.49 1297.12,103.51 1312.51,109.15 1330.62,115.89 1343.66,120.84 1358.27,126.31 1376.02,132.96 1402.12,142.80 1427.24,152.21">
        <lane id="746.0_0" index="0" speed="13.89" length="279.21" width="3.66" shape="1165.97,48.72 1180.66,52.73 1198.47,57.87 1217.24,63.45 1238.75,70.10 1255.52,75.60 1270.32,80.53 1287.29,86.40 1301.48,91.46 1316.95,97.13 1335.12,103.90 1348.18,108.85 1362.76,114.31 1380.53,120.97 1406.63,130.81 1430.33,139.69"/>
        <lane id="746.0_1" index="1" speed="13.89" length="279.21" width="3.66" shape="1165.01,52.25 1179.67,56.25 1197.44,61.38 1216.18,66.95 1237.64,73.59 1254.37,79.07 1269.14,84.00 1286.07,89.86 1300.23,94.90 1315.68,100.57 1333.84,107.32 1346.89,112.28 1361.48,117.74 1379.24,124.40 1405.34,134.23 1429.05,143.12"/>
        <lane id="746.0_2" index="2" speed="13.89" length="279.21" width="3.66" shape="1164.05,55.78 1178.68,59.77 1196.42,64.89 1215.12,70.46 1236.53,77.08 1253.22,82.55 1267.97,87.46 1284.86,93.31 1298.99,98.35 1314.41,104.00 1332.55,110.75 1345.60,115.70 1360.20,121.17 1377.95,127.82 1404.05,137.66 1427.77,146.54"/>
        <lane id="746.0_3" index="3" disallow="all" speed="13.89" length="279.21" width="3.66" shape="1163.08,59.31 1177.70,63.30 1195.39,68.40 1214.05,73.96 1235.42,80.57 1252.07,86.02 1266.79,90.93 1283.65,96.76 1297.74,101.79 1313.15,107.43 1331.26,114.18 1344.31,119.13 1358.91,124.60 1376.67,131.25 1402.76,141.09 1426.48,149.97" type="shoulder"/>
    </edge>
    <edge id="747.0" from="node_747_start" to="node_747_end" priority="-1" type="town" shape="5522.10,1883.12 5544.16,1884.53 5573.62,1886.36 5585.21,1887.12">
        <lane id="747.0_0" index="0" disallow="all" speed="13.89" length="62.94" width="3.66" shape="5523.31,1866.69 5545.19,1868.09 5574.66,1869.92 5586.13,1870.68" type="shoulder"/>
        <lane id="747.0_1" index="1" speed="13.89" length="62.94" width="3.66" shape="5523.07,1870.35 5544.97,1871.75 5574.43,1873.58 5585.89,1874.33"/>
        <lane id="747.0_2" index="2" speed="13.89" length="62.94" width="3.66" shape="5522.84,1874.00 5544.74,1875.40 5574.20,1877.23 5585.65,1877.98"/>
        <lane id="747.0_3" index="3" speed="13.89" length="62.94" width="3.66" shape="5522.61,1877.65 5544.51,1879.05 5573.97,1880.88 5585.41,1881.63"/>
        <lane id="747.0_4" index="4" disallow="all" speed="13.89" length="62.94" width="3.66" shape="5522.37,1881.30 5544.28,1882.70 5573.74,1884.53 5585.18,1885.28" type="shoulder"/>
    </edge>
    <edge id="748.0" from="node_748_start" to="j_merge_start_42" priority="-1" type="town" shape="1531.39,191.51 1533.20,192.21 1547.36,197.56 1565.30,204.29 1576.16,208.36 1590.94,213.95 1612.06,221.93 1626.52,227.33 1638.46,231.87 1650.97,236.59 1660.38,240.14 1669.51,243.56 1677.89,246.70 1689.11,250.92 1698.43,254.43 1710.56,259.00 1722.89,263.64 1732.81,267.37 1744.13,271.61 1756.79,276.34 1766.65,280.06 1779.12,284.76 1792.03,289.64 1803.46,293.94 1815.58,298.48 1824.80,301.96 1835.61,306.01 1848.65,310.93 1860.58,315.43 1881.74,323.42 1897.12,329.22 1909.92,334.03 1924.06,339.35 1937.61,344.45 1949.72,349.04 1957.65,352.02 1968.37,356.03 1984.02,361.88 1998.88,367.46 2017.19,374.37 2029.09,378.87 2039.61,382.84 2048.10,386.02">