<?xml version='1.0' encoding='utf-8'?>
<connections>
    <connection from="753.0" to="773.0" fromLane="1" toLane="0" />
    <connection from="753.0" to="751.0" fromLane="3" toLane="2" />
    <connection from="753.0" to="751.0" fromLane="2" toLane="1" />
    <connection from="753.0" to="751.0" fromLane="1" toLane="0" />
    <connection from="753.0" to="751.0" fromLane="4" toLane="3" />
    <connection from="760.0" to="759.0" fromLane="4" toLane="3" />
    <connection from="760.0" to="759.0" fromLane="3" toLane="2" />
    <connection from="760.0" to="759.0" fromLane="2" toLane="1" />
    <connection from="760.0" to="759.0" fromLane="5" toLane="4" />
    <connection from="760.0" to="761.0" fromLane="1" toLane="0" />
    <connection from="789.0" to="799.0" fromLane="0" toLane="0" />
    <connection from="789.0" to="804.0" fromLane="3" toLane="3" />
    <connection from="789.0" to="804.0" fromLane="4" toLane="4" />
    <connection from="789.0" to="804.0" fromLane="1" toLane="1" />
    <connection from="789.0" to="804.0" fromLane="2" toLane="2" />
    <connection from="748.0" to="merge_zone_42" fromLane="3" toLane="4" />
    <connection from="748.0" to="merge_zone_42" fromLane="1" toLane="2" />
    <connection from="748.0" to="merge_zone_42" fromLane="2" toLane="3" />
    <connection from="748.0" to="merge_zone_42" fromLane="4" toLane="5" />
    <connection from="merge_zone_42" to="745.0" fromLane="4" toLane="4" />
    <connection from="merge_zone_42" to="745.0" fromLane="2" toLane="2" />
    <connection from="merge_zone_42" to="745.0" fromLane="3" toLane="3" />
    <connection from="merge_zone_42" to="745.0" fromLane="5" toLane="5" />
    <connection from="765.0" to="merge_zone_42" fromLane="0" toLane="0" />
    <connection from="merge_zone_42" to="745.0" fromLane="0" toLane="5" dir="r" state="m" />
    <connection from="755.0" to="merge_zone_43" fromLane="3" toLane="4" />
    <connection from="755.0" to="merge_zone_43" fromLane="2" toLane="3" />
    <connection from="755.0" to="merge_zone_43" fromLane="1" toLane="2" />
    <connection from="755.0" to="merge_zone_43" fromLane="4" toLane="5" />
    <connection from="merge_zone_43" to="763.0" fromLane="4" toLane="4" />
    <connection from="merge_zone_43" to="763.0" fromLane="3" toLane="3" />
    <connection from="merge_zone_43" to="763.0" fromLane="2" toLane="2" />
    <connection from="merge_zone_43" to="763.0" fromLane="5" toLane="5" />
    <connection from="778.0" to="merge_zone_43" fromLane="0" toLane="0" />
    <connection from="merge_zone_43" to="763.0" fromLane="0" toLane="5" dir="r" state="m" />
    <connection from="707.0" to="746.0" fromLane="3" toLane="2" />
    <connection from="707.0" to="746.0" fromLane="4" toLane="3" />
    <connection from="707.0" to="746.0" fromLane="1" toLane="0" />
    <connection from="707.0" to="746.0" fromLane="2" toLane="1" />
    <connection from="707.0" to="772.0" fromLane="1" toLane="0" />
</connections>