<?xml version='1.0' encoding='utf-8'?>
<nodes>
    <node id="node_743_start" x="776920.2709072214" y="3296966.581810202" type="priority" />
    <node id="node_743_end" x="776925.3096151361" y="3296971.1864078282" type="priority" />
    <node id="node_744_start" x="774198.7210476154" y="3295671.3455297607" type="priority" />
    <node id="node_744_end" x="774257.1390163662" y="3295693.38410398" type="priority" />
    <node id="node_745_end" x="775339.3511610338" y="3296100.747061604" type="priority" />
    <node id="node_747_start" x="778293.5754267542" y="3297402.2595485426" type="priority" />
    <node id="node_747_end" x="778356.6931743294" y="3297406.2578131384" type="priority" />
    <node id="node_748_start" x="774302.8700954686" y="3295710.6486303485" type="priority" />
    <node id="node_749_start" x="777364.2329081246" y="3297225.784177526" type="priority" />
    <node id="node_750_start" x="779351.9643886874" y="3297483.4707270074" type="priority" />
    <node id="node_750_end" x="779921.3301866236" y="3297519.25568752" type="priority" />
    <node id="node_754_start" x="778960.5582035754" y="3297449.2670531357" type="priority" />
    <node id="node_754_end" x="779009.1005440247" y="3297453.9620178486" type="priority" />
    <node id="node_756_end" x="778604.3084039834" y="3297421.838405992" type="priority" />
    <node id="node_758_start" x="778698.5825529699" y="3297427.839876924" type="priority" />
    <node id="node_759_end" x="776685.2719261721" y="3296737.5772984447" type="priority" />
    <node id="node_760_start" x="775646.2404124574" y="3296216.241968412" type="priority" />
    <node id="node_761_end" x="776057.6037351456" y="3296335.7004162525" type="priority" />
    <node id="node_762_start" x="776715.3920853178" y="3296766.977898495" type="priority" />
    <node id="node_765_start" x="774810.9646999603" y="3295850.458688939" type="priority" />
    <node id="node_772_end" x="774207.3688960308" y="3295649.77100475" type="priority" />
    <node id="node_773_end" x="777370.4858452632" y="3297205.9075211827" type="priority" />
    <node id="node_775_end" x="777506.0903189671" y="3297239.185359496" type="priority" />
    <node id="node_778_start" x="778908.0845765448" y="3297414.9924787465" type="priority" />
    <node id="node_783_end" x="779969.1757070132" y="3297522.255777017" type="priority" />
    <node id="node_786_start" x="780615.1285138148" y="3297523.6065945923" type="priority" />
    <node id="node_786_end" x="780686.0991717665" y="3297515.555129054" type="priority" />
    <node id="node_787_end" x="781689.3367130626" y="3297401.097119745" type="priority" />
    <node id="node_799_end" x="780316.893654919" y="3297512.6376440194" type="priority" />
    <node id="node_726_start" x="772771.4789821866" y="3295630.1806127694" type="priority" />
    <node id="node_710_start" x="772774.3918293244" y="3295655.809409914" type="priority" />
    <node id="node_793_end" x="781745.3464694687" y="3297394.7053365563" type="priority" />
    <node id="junction_8" x="0.0" y="0.0" type="priority" />
    <node id="junction_64" x="0.0" y="0.0" type="priority" />
    <node id="junction_59" x="0.0" y="0.0" type="priority" />
    <node id="junction_108" x="0.0" y="0.0" type="priority" />
    <node id="junction_4" x="0.0" y="0.0" type="priority" />
    <node id="junction_10" x="0.0" y="0.0" type="priority" />
    <node id="junction_11" x="0.0" y="0.0" type="priority" />
    <node id="junction_67" x="0.0" y="0.0" type="priority" />
    <node id="junction_60" x="0.0" y="0.0" type="priority" />
    <node id="junction_9" x="0.0" y="0.0" type="priority" />
    <node id="junction_65" x="0.0" y="0.0" type="priority" />
    <node id="junction_5" x="0.0" y="0.0" type="priority" />
    <node id="junction_68" x="0.0" y="0.0" type="priority" />
    <node id="junction_12" x="0.0" y="0.0" type="priority" />
    <node id="junction_66" x="0.0" y="0.0" type="priority" />
    <node id="junction_61" x="0.0" y="0.0" type="priority" />
    <node id="junction_13" x="0.0" y="0.0" type="priority" />
    <node id="junction_69" x="0.0" y="0.0" type="priority" />
    <node id="junction_2" x="0.0" y="0.0" type="priority" />
    <node id="junction_58" x="0.0" y="0.0" type="priority" />
    <node id="junction_15" x="0.0" y="0.0" type="priority" />
    <node id="junction_16" x="0.0" y="0.0" type="priority" />
    <node id="junction_71" x="0.0" y="0.0" type="priority" />
    <node id="junction_14" x="0.0" y="0.0" type="priority" />
    <node id="junction_72" x="0.0" y="0.0" type="priority" />
    <node id="junction_70" x="0.0" y="0.0" type="priority" />
    <node id="junction_1" x="0.0" y="0.0" type="priority" />
    <node id="junction_73" x="0.0" y="0.0" type="priority" />
    <node id="junction_17" x="0.0" y="0.0" type="priority" />
    <node id="junction_18" x="0.0" y="0.0" type="priority" />
    <node id="junction_19" x="0.0" y="0.0" type="priority" />
    <node id="junction_74" x="0.0" y="0.0" type="priority" />
    <node id="junction_76" x="0.0" y="0.0" type="priority" />
    <node id="junction_7" x="0.0" y="0.0" type="priority" />
    <node id="junction_20" x="0.0" y="0.0" type="priority" />
    <node id="junction_75" x="0.0" y="0.0" type="priority" />
    <node id="junction_21" x="0.0" y="0.0" type="priority" />
    <node id="junction_77" x="0.0" y="0.0" type="priority" />
    <node id="junction_78" x="0.0" y="0.0" type="priority" />
    <node id="junction_62" x="0.0" y="0.0" type="priority" />
    <node id="junction_22" x="0.0" y="0.0" type="priority" />
    <node id="junction_79" x="0.0" y="0.0" type="priority" />
    <node id="junction_23" x="0.0" y="0.0" type="priority" />
    <node id="junction_3" x="0.0" y="0.0" type="priority" />
    <node id="junction_80" x="0.0" y="0.0" type="priority" />
    <node id="junction_24" x="0.0" y="0.0" type="priority" />
    <node id="junction_25" x="0.0" y="0.0" type="priority" />
    <node id="junction_81" x="0.0" y="0.0" type="priority" />
    <node id="junction_26" x="0.0" y="0.0" type="priority" />
    <node id="junction_82" x="0.0" y="0.0" type="priority" />
    <node id="junction_27" x="0.0" y="0.0" type="priority" />
    <node id="junction_83" x="0.0" y="0.0" type="priority" />
    <node id="junction_28" x="0.0" y="0.0" type="priority" />
    <node id="junction_84" x="0.0" y="0.0" type="priority" />
    <node id="junction_85" x="0.0" y="0.0" type="priority" />
    <node id="junction_29" x="0.0" y="0.0" type="priority" />
    <node id="junction_86" x="0.0" y="0.0" type="priority" />
    <node id="junction_87" x="0.0" y="0.0" type="priority" />
    <node id="junction_30" x="0.0" y="0.0" type="priority" />
    <node id="junction_6" x="0.0" y="0.0" type="priority" />
    <node id="junction_88" x="0.0" y="0.0" type="priority" />
    <node id="junction_31" x="0.0" y="0.0" type="priority" />
    <node id="junction_89" x="0.0" y="0.0" type="priority" />
    <node id="junction_32" x="0.0" y="0.0" type="priority" />
    <node id="junction_33" x="0.0" y="0.0" type="priority" />
    <node id="junction_91" x="0.0" y="0.0" type="priority" />
    <node id="junction_34" x="0.0" y="0.0" type="priority" />
    <node id="junction_90" x="0.0" y="0.0" type="priority" />
    <node id="junction_92" x="0.0" y="0.0" type="priority" />
    <node id="junction_37" x="0.0" y="0.0" type="priority" />
    <node id="junction_36" x="0.0" y="0.0" type="priority" />
    <node id="junction_35" x="0.0" y="0.0" type="priority" />
    <node id="junction_94" x="0.0" y="0.0" type="priority" />
    <node id="junction_93" x="0.0" y="0.0" type="priority" />
    <node id="junction_38" x="0.0" y="0.0" type="priority" />
    <node id="junction_95" x="0.0" y="0.0" type="priority" />
    <node id="junction_96" x="0.0" y="0.0" type="priority" />
    <node id="junction_39" x="0.0" y="0.0" type="priority" />
    <node id="junction_111" x="0.0" y="0.0" type="priority" />
    <node id="junction_99" x="0.0" y="0.0" type="priority" />
    <node id="junction_97" x="0.0" y="0.0" type="priority" />
    <node id="junction_40" x="0.0" y="0.0" type="priority" />
    <node id="junction_106" x="0.0" y="0.0" type="priority" />
    <node id="junction_47" x="0.0" y="0.0" type="priority" />
    <node id="junction_44" x="0.0" y="0.0" type="priority" />
    <node id="junction_102" x="0.0" y="0.0" type="priority" />
    <node id="junction_104" x="0.0" y="0.0" type="priority" />
    <node id="junction_63" x="0.0" y="0.0" type="priority" />
    <node id="junction_105" x="0.0" y="0.0" type="priority" />
    <node id="junction_45" x="0.0" y="0.0" type="priority" />
    <node id="junction_46" x="0.0" y="0.0" type="priority" />
    <node id="junction_48" x="0.0" y="0.0" type="priority" />
    <node id="junction_107" x="0.0" y="0.0" type="priority" />
    <node id="junction_49" x="0.0" y="0.0" type="priority" />
    <node id="junction_109" x="0.0" y="0.0" type="priority" />
    <node id="junction_50" x="0.0" y="0.0" type="priority" />
    <node id="junction_51" x="0.0" y="0.0" type="priority" />
    <node id="junction_110" x="0.0" y="0.0" type="priority" />
    <node id="junction_52" x="0.0" y="0.0" type="priority" />
    <node id="junction_53" x="0.0" y="0.0" type="priority" />
    <node id="junction_113" x="0.0" y="0.0" type="priority" />
    <node id="junction_54" x="0.0" y="0.0" type="priority" />
    <node id="junction_55" x="0.0" y="0.0" type="priority" />
    <node id="junction_57" x="0.0" y="0.0" type="priority" />
    <node id="junction_114" x="0.0" y="0.0" type="priority" />
    <node id="junction_56" x="0.0" y="0.0" type="priority" />
    <node id="j_merge_start_42" x="774819.5815011547" y="3295905.1591409557" type="priority" />
    <node id="j_merge_end_42" x="775252.0353621285" y="3296067.8854679037" type="priority" />
    <node id="j_merge_start_43" x="779098.0463352907" y="3297462.698063934" type="priority" />
    <node id="j_merge_end_43" x="779275.1818218704" y="3297478.23257525" type="priority" />
    <node id="junction_41" x="773115.5676230183" y="3295552.2967144493" type="priority" />
    <node id="junction_103" x="780096.053271622" y="3297523.4612083253" type="priority" />
    <node id="junction_101" x="775815.0859188708" y="3296272.449123042" type="priority" />
    <node id="junction_98" x="773900.6563522015" y="3295567.1312395334" type="priority" />
    <node id="junction_100" x="777251.0624219651" y="3297176.6121194935" type="priority" />
</nodes>