<?xml version='1.0' encoding='utf-8'?>
<edges>
    <edge id="707.0" from="junction_41" to="junction_98" numLanes="5" speed="13.89" type="town" shape="773179.72,3295544.45 773183.69,3295543.75 773183.69,3295543.75 773210.92,3295539.31 773210.92,3295539.31 773241.79,3295534.87 773241.79,3295534.87 773265.35,3295531.86 773265.35,3295531.86 773275.12,3295530.74 773275.12,3295530.74 773288.34,3295529.24 773288.34,3295529.24 773313.67,3295526.70 773313.67,3295526.70 773333.68,3295524.95 773333.68,3295524.95 773354.85,3295523.33 773354.85,3295523.33 773374.25,3295522.10 773374.25,3295522.10 773393.94,3295521.07 773393.94,3295521.07 773415.17,3295520.25 773415.17,3295520.25 773434.56,3295519.66 773434.56,3295519.66 773456.29,3295519.22 773456.29,3295519.22 773478.80,3295519.14 773478.80,3295519.14 773502.82,3295519.35 773502.82,3295519.35 773527.54,3295519.98 773527.54,3295519.98 773547.51,3295520.68 773547.51,3295520.68 773566.86,3295521.52 773566.86,3295521.52 773589.65,3295522.96 773589.65,3295522.96 773607.05,3295524.13 773607.05,3295524.13 773627.13,3295525.75 773627.13,3295525.75 773642.44,3295527.13 773642.44,3295527.13 773661.04,3295529.04 773661.04,3295529.04 773682.95,3295531.47 773682.95,3295531.47 773707.59,3295534.50 773707.59,3295534.50 773729.47,3295537.62 773729.47,3295537.62 773760.69,3295542.46 773760.69,3295542.46 773789.16,3295547.34 773789.16,3295547.34 773814.83,3295552.32 773814.83,3295552.32 773831.67,3295555.68">
        <lane index="0" width="3.66" type="shoulder" disallow="all" />
        <lane index="1" width="3.66" />
        <lane index="2" width="3.66" />
        <lane index="3" width="3.66" />
        <lane index="4" width="3.66" type="shoulder" disallow="all" />
    </edge>
    <edge id="743.0" from="node_743_start" to="node_743_end" numLanes="5" speed="13.89" type="town" shape="776920.27,3296966.58 776925.31,3296971.19">
        <lane index="0" width="3.66" type="shoulder" disallow="all" />
        <lane index="1" width="3.66" />
        <lane index="2" width="3.66" />
        <lane index="3" width="3.66" />
        <lane index="4" width="3.66" type="shoulder" disallow="all" />
    </edge>
    <edge id="744.0" from="node_744_start" to="node_744_end" numLanes="5" speed="13.89" type="town" shape="774198.72,3295671.35 774216.65,3295678.09 774216.65,3295678.09 774234.61,3295684.86 774234.61,3295684.86 774253.87,3295692.12 774253.87,3295692.12 774257.14,3295693.38">
        <lane index="0" width="3.66" type="shoulder" disallow="all" />
        <lane index="1" width="3.66" />
        <lane index="2" width="3.66" />
        <lane index="3" width="3.66" />
        <lane index="4" width="3.66" type="shoulder" disallow="all" />
    </edge>
    <edge id="745.0" from="j_merge_end_42" to="node_745_end" numLanes="6" speed="13.89" type="town" shape="775252.04,3296067.89 775278.75,3296077.94 775278.75,3296077.94 775301.21,3296086.39 775301.21,3296086.39 775324.90,3296095.32 775324.90,3296095.32 775339.35,3296100.75">
        <lane index="0" width="3.66" type="shoulder" disallow="all" />
        <lane index="1" width="3.66" />
        <lane index="2" width="3.66" />
        <lane index="3" width="3.66" />
        <lane index="4" width="3.66" />
        <lane index="5" width="3.66" type="shoulder" disallow="all" />
    </edge>
    <edge id="746.0" from="junction_98" to="node_744_start" numLanes="4" speed="13.89" type="town" shape="773932.98,3295579.92 773948.68,3295584.20 773948.68,3295584.20 773966.35,3295589.30 773966.35,3295589.30 773985.00,3295594.85 773985.00,3295594.85 774006.34,3295601.45 774006.34,3295601.45 774022.98,3295606.90 774022.98,3295606.90 774037.68,3295611.80 774037.68,3295611.80 774054.52,3295617.63 774054.52,3295617.63 774068.60,3295622.65 774068.60,3295622.65 774083.99,3295628.29 774083.99,3295628.29 774102.10,3295635.03 774102.10,3295635.03 774115.14,3295639.98 774115.14,3295639.98 774129.75,3295645.45 774129.75,3295645.45 774147.50,3295652.10 774147.50,3295652.10 774173.60,3295661.94 774173.60,3295661.94 774198.72,3295671.35">
        <lane index="0" width="3.66" />
        <lane index="1" width="3.66" />
        <lane index="2" width="3.66" />
        <lane index="3" width="3.66" type="shoulder" disallow="all" />
    </edge>
    <edge id="747.0" from="node_747_start" to="node_747_end" numLanes="5" speed="13.89" type="town" shape="778293.58,3297402.26 778315.64,3297403.67 778315.64,3297403.67 778345.10,3297405.50 778345.10,3297405.50 778356.69,3297406.26">
        <lane index="0" width="3.66" type="shoulder" disallow="all" />
        <lane index="1" width="3.66" />
        <lane index="2" width="3.66" />
        <lane index="3" width="3.66" />
        <lane index="4" width="3.66" type="shoulder" disallow="all" />
    </edge>
    <edge id="748.0" from="node_748_start" to="j_merge_start_42" numLanes="5" speed="13.89" type="town" shape="774302.87,3295710.65 774304.68,3295711.35 774304.68,3295711.35 774318.84,3295716.70 774318.84,3295716.70 774336.78,3295723.43 774336.78,3295723.43 774347.64,3295727.50 774347.64,3295727.50 774362.42,3295733.09 774362.42,3295733.09 774383.54,3295741.07 774383.54,3295741.07 774398.00,3295746.47 774398.00,3295746.47 774409.94,3295751.01 774409.94,3295751.01 774422.45,3295755.73 774422.45,3295755.73 774431.86,3295759.28 774431.86,3295759.28 774440.99,3295762.70 774440.99,3295762.70 774449.37,3295765.84 774449.37,3295765.84 774460.59,3295770.06 774460.59,3295770.06 774469.91,3295773.57 774469.91,3295773.57 774482.04,3295778.14 774482.04,3295778.14 774494.37,3295782.78 774494.37,3295782.78 774504.29,3295786.51 774504.29,3295786.51 774515.61,3295790.75 774515.61,3295790.75 774528.27,3295795.48 774528.27,3295795.48 774538.13,3295799.20 774538.13,3295799.20 774550.60,3295803.90 774550.60,3295803.90 774563.51,3295808.78 774563.51,3295808.78 774574.94,3295813.08 774574.94,3295813.08 774587.06,3295817.62 774587.06,3295817.62 774596.28,3295821.10 774596.28,3295821.10 774607.09,3295825.15 774607.09,3295825.15 774620.13,3295830.07 774620.13,3295830.07 774632.06,3295834.57 774632.06,3295834.57 774653.22,3295842.56 774653.22,3295842.56 774668.60,3295848.36 774668.60,3295848.36 774681.40,3295853.17 774681.40,3295853.17 774695.54,3295858.49 774695.54,3295858.49 774709.09,3295863.59 774709.09,3295863.59 774721.20,3295868.18 774721.20,3295868.18 774729.13,3295871.16 774729.13,3295871.16 774739.85,3295875.17 774739.85,3295875.17 774755.50,3295881.02 774755.50,3295881.02 774770.36,3295886.60 774770.36,3295886.60 774788.67,3295893.51 774788.67,3295893.51 774800.57,3295898.01 774800.57,3295898.01 774811.09,3295901.98 774811.09,3295901.98 774819.58,3295905.16">
        <lane index="0" width="3.66" type="shoulder" disallow="all" />
        <lane index="1" width="3.66" />
        <lane index="2" width="3.66" />
        <lane index="3" width="3.66" />
        <lane index="4" width="3.66" type="shoulder" disallow="all" />
    </edge>
    <edge id="749.0" from="node_749_start" to="node_747_start" numLanes="5" speed="13.89" type="town" shape="777364.23,3297225.78 777376.37,3297229.60 777376.37,3297229.60 777388.88,3297233.42 777388.88,3297233.42 777407.36,3297239.02 777407.36,3297239.02 777430.58,3297246.17 777430.58,3297246.17 777459.47,3297255.03 777459.47,3297255.03 777489.44,3297264.07 777489.44,3297264.07 777523.39,3297273.82 777523.39,3297273.82 777559.13,3297283.75 777559.13,3297283.75 777589.85,3297291.97 777589.85,3297291.97 777627.58,3297301.66 777627.58,3297301.66 777657.11,3297308.95 777657.11,3297308.95 777692.96,3297317.43 777692.96,3297317.43 777729.19,3297325.59 777729.19,3297325.59 777772.02,3297334.67 777772.02,3297334.67 777819.47,3297344.16 777819.47,3297344.16 777858.42,3297351.36 777858.42,3297351.36 777904.96,3297359.42 777904.96,3297359.42 777951.74,3297366.95 777951.74,3297366.95 778010.77,3297375.39 778010.77,3297375.39 778067.71,3297382.59 778067.71,3297382.59 778118.81,3297388.24 778118.81,3297388.24 778154.38,3297391.81 778154.38,3297391.81 778206.44,3297396.25 778206.44,3297396.25 778255.72,3297399.80 778255.72,3297399.80 778293.58,3297402.26">
        <lane index="0" width="3.66" type="shoulder" disallow="all" />
        <lane index="1" width="3.66" />
        <lane index="2" width="3.66" />
        <lane index="3" width="3.66" />
        <lane index="4" width="3.66" type="shoulder" disallow="all" />
    </edge>
    <edge id="750.0" from="node_750_start" to="node_750_end" numLanes="6" speed="13.89" type="town" shape="779351.96,3297483.47 779396.19,3297486.26 779396.19,3297486.26 779434.34,3297488.61 779434.34,3297488.61 779471.75,3297490.96 779471.75,3297490.96 779497.25,3297492.60 779497.25,3297492.60 779500.63,3297492.89 779500.63,3297492.89 779519.51,3297494.05 779519.51,3297494.05 779542.10,3297495.46 779542.10,3297495.46 779567.96,3297497.06 779567.96,3297497.06 779590.51,3297498.47 779590.51,3297498.47 779608.85,3297499.63 779608.85,3297499.63 779632.18,3297501.13 779632.18,3297501.13 779652.02,3297502.37 779652.02,3297502.37 779674.95,3297503.84 779674.95,3297503.84 779701.18,3297505.44 779701.18,3297505.44 779715.55,3297506.35 779715.55,3297506.35 779732.32,3297507.38 779732.32,3297507.38 779747.23,3297508.33 779747.23,3297508.33 779763.70,3297509.38 779763.70,3297509.38 779778.60,3297510.31 779778.60,3297510.31 779795.58,3297511.37 779795.58,3297511.37 779810.27,3297512.30 779810.27,3297512.30 779827.04,3297513.33 779827.04,3297513.33 779841.86,3297514.26 779841.86,3297514.26 779858.58,3297515.30 779858.58,3297515.30 779874.65,3297516.32 779874.65,3297516.32 779892.08,3297517.42 779892.08,3297517.42 779908.73,3297518.47 779908.73,3297518.47 779921.33,3297519.26">
        <lane index="0" width="3.66" type="shoulder" disallow="all" />
        <lane index="1" width="3.66" />
        <lane index="2" width="3.66" />
        <lane index="3" width="3.66" />
        <lane index="4" width="3.66" />
        <lane index="5" width="3.66" type="shoulder" disallow="all" />
    </edge>
    <edge id="751.0" from="junction_100" to="node_749_start" numLanes="4" speed="13.89" type="town" shape="777285.60,3297197.79 777297.66,3297202.50 777297.66,3297202.50 777311.04,3297207.58 777311.04,3297207.58 777328.45,3297213.82 777328.45,3297213.82 777350.61,3297221.34 777350.61,3297221.34 777364.23,3297225.78">
        <lane index="0" width="3.66" />
        <lane index="1" width="3.66" />
        <lane index="2" width="3.66" />
        <lane index="3" width="3.66" type="shoulder" disallow="all" />
    </edge>
    <edge id="753.0" from="node_743_end" to="junction_100" numLanes="5" speed="13.89" type="town" shape="776925.31,3296971.19 776937.29,3296982.17 776937.29,3296982.17 776946.87,3296990.68 776946.87,3296990.68 776956.35,3296998.85 776956.35,3296998.85 776967.05,3297007.89 776967.05,3297007.89 776982.57,3297020.64 776982.57,3297020.64 776999.24,3297033.86 776999.24,3297033.86 777016.54,3297046.99 777016.54,3297046.99 777035.43,3297060.92 777035.43,3297060.92 777049.00,3297070.50 777049.00,3297070.50 777066.01,3297082.13 777066.01,3297082.13 777081.88,3297092.68 777081.88,3297092.68 777096.56,3297102.01 777096.56,3297102.01 777105.71,3297107.76 777105.71,3297107.76 777117.84,3297115.10 777117.84,3297115.10 777132.13,3297123.46 777132.13,3297123.46 777147.11,3297131.99 777147.11,3297131.99 777157.39,3297137.69 777157.39,3297137.69 777170.65,3297144.78 777170.65,3297144.78 777176.89,3297148.06">
        <lane index="0" width="3.66" type="shoulder" disallow="all" />
        <lane index="1" width="3.66" />
        <lane index="2" width="3.66" />
        <lane index="3" width="3.66" />
        <lane index="4" width="3.66" type="shoulder" disallow="all" />
    </edge>
    <edge id="754.0" from="node_754_start" to="node_754_end" numLanes="5" speed="13.89" type="town" shape="778960.56,3297449.27 778981.53,3297451.27 778981.53,3297451.27 779009.10,3297453.96">
        <lane index="0" width="3.66" type="shoulder" disallow="all" />
        <lane index="1" width="3.66" />
        <lane index="2" width="3.66" />
        <lane index="3" width="3.66" />
        <lane index="4" width="3.66" type="shoulder" disallow="all" />
    </edge>
    <edge id="755.0" from="node_754_end" to="j_merge_start_43" numLanes="5" speed="13.89" type="town" shape="779009.10,3297453.96 779034.72,3297456.47 779034.72,3297456.47 779062.48,3297459.16 779062.48,3297459.16 779098.05,3297462.70">
        <lane index="0" width="3.66" type="shoulder" disallow="all" />
        <lane index="1" width="3.66" />
        <lane index="2" width="3.66" />
        <lane index="3" width="3.66" />
        <lane index="4" width="3.66" type="shoulder" disallow="all" />
    </edge>
    <edge id="756.0" from="node_747_end" to="node_756_end" numLanes="5" speed="13.89" type="town" shape="778356.69,3297406.26 778383.44,3297407.98 778383.44,3297407.98 778424.74,3297410.60 778424.74,3297410.60 778474.18,3297413.71 778474.18,3297413.71 778510.86,3297416.00 778510.86,3297416.00 778553.17,3297418.55 778553.17,3297418.55 778580.29,3297420.35 778580.29,3297420.35 778604.31,3297421.84">
        <lane index="0" width="3.66" type="shoulder" disallow="all" />
        <lane index="1" width="3.66" />
        <lane index="2" width="3.66" />
        <lane index="3" width="3.66" />
        <lane index="4" width="3.66" type="shoulder" disallow="all" />
    </edge>
    <edge id="758.0" from="node_758_start" to="node_754_start" numLanes="5" speed="13.89" type="town" shape="778698.58,3297427.84 778739.13,3297430.52 778739.13,3297430.52 778778.33,3297433.28 778778.33,3297433.28 778827.63,3297437.11 778827.63,3297437.11 778872.81,3297440.87 778872.81,3297440.87 778915.34,3297444.78 778915.34,3297444.78 778960.56,3297449.27">
        <lane index="0" width="3.66" type="shoulder" disallow="all" />
        <lane index="1" width="3.66" />
        <lane index="2" width="3.66" />
        <lane index="3" width="3.66" />
        <lane index="4" width="3.66" type="shoulder" disallow="all" />
    </edge>
    <edge id="759.0" from="junction_101" to="node_759_end" numLanes="5" speed="13.89" type="town" shape="775849.33,3296292.74 775863.17,3296297.99 775863.17,3296297.99 775875.44,3296302.61 775875.44,3296302.61 775887.27,3296306.91 775887.27,3296306.91 775903.85,3296313.25 775903.85,3296313.25 775922.02,3296320.12 775922.02,3296320.12 775943.34,3296328.11 775943.34,3296328.11 775966.99,3296337.00 775966.99,3296337.00 775982.47,3296342.84 775982.47,3296342.84 775999.69,3296349.33 775999.69,3296349.33 776017.78,3296356.13 776017.78,3296356.13 776039.63,3296364.34 776039.63,3296364.34 776064.39,3296373.65 776064.39,3296373.65 776097.49,3296386.03 776097.49,3296386.03 776123.39,3296395.83 776123.39,3296395.83 776144.63,3296403.81 776144.63,3296403.81 776162.81,3296410.64 776162.81,3296410.64 776183.74,3296418.51 776183.74,3296418.51 776203.23,3296425.81 776203.23,3296425.81 776225.80,3296434.43 776225.80,3296434.43 776249.05,3296443.32 776249.05,3296443.32 776268.84,3296451.35 776268.84,3296451.35 776287.31,3296459.29 776287.31,3296459.29 776309.59,3296469.27 776309.59,3296469.27 776331.67,3296479.74 776331.67,3296479.74 776350.79,3296489.24 776350.79,3296489.24 776371.07,3296499.76 776371.07,3296499.76 776398.75,3296514.85 776398.75,3296514.85 776432.64,3296534.74 776432.64,3296534.74 776458.80,3296551.14 776458.80,3296551.14 776488.52,3296570.86 776488.52,3296570.86 776512.25,3296587.63 776512.25,3296587.63 776536.16,3296605.26 776536.16,3296605.26 776554.91,3296619.81 776554.91,3296619.81 776567.18,3296629.61 776567.18,3296629.61 776578.92,3296639.26 776578.92,3296639.26 776590.10,3296648.65 776590.10,3296648.65 776604.39,3296661.00 776604.39,3296661.00 776617.84,3296672.98 776617.84,3296672.98 776635.12,3296688.93 776635.12,3296688.93 776651.52,3296704.65 776651.52,3296704.65 776669.76,3296722.38 776669.76,3296722.38 776681.64,3296734.04 776681.64,3296734.04 776685.27,3296737.58">
        <lane index="0" width="3.66" type="shoulder" disallow="all" />
        <lane index="1" width="3.66" />
        <lane index="2" width="3.66" />
        <lane index="3" width="3.66" />
        <lane index="4" width="3.66" type="shoulder" disallow="all" />
    </edge>
    <edge id="760.0" from="node_760_start" to="junction_101" numLanes="6" speed="13.89" type="town" shape="775646.24,3296216.24 775668.50,3296224.63 775668.50,3296224.63 775689.55,3296232.58 775689.55,3296232.58 775707.29,3296239.32 775707.29,3296239.32 775727.43,3296246.88 775727.43,3296246.88 775739.14,3296251.27">
        <lane index="0" width="3.66" type="shoulder" disallow="all" />
        <lane index="1" width="3.66" />
        <lane index="2" width="3.66" />
        <lane index="3" width="3.66" />
        <lane index="4" width="3.66" />
        <lane index="5" width="3.66" type="shoulder" disallow="all" />
    </edge>
    <edge id="761.0" from="junction_101" to="node_761_end" numLanes="1" speed="13.89" type="town" shape="775856.79,3296273.34 775869.21,3296277.06 775869.21,3296277.06 775892.08,3296283.92 775892.08,3296283.92 775914.21,3296290.45 775914.21,3296290.45 775934.14,3296296.42 775934.14,3296296.42 775957.15,3296303.29 775957.15,3296303.29 775975.96,3296309.03 775975.96,3296309.03 775993.60,3296314.50 775993.60,3296314.50 776010.62,3296319.95 776010.62,3296319.95 776028.79,3296325.92 776028.79,3296325.92 776047.95,3296332.40 776047.95,3296332.40 776057.60,3296335.70">
        <lane index="0" width="3.66" />
    </edge>
    <edge id="762.0" from="node_762_start" to="node_743_start" numLanes="5" speed="13.89" type="town" shape="776715.39,3296766.98 776720.12,3296771.69 776720.12,3296771.69 776731.51,3296782.77 776731.51,3296782.77 776746.00,3296796.93 776746.00,3296796.93 776760.22,3296810.82 776760.22,3296810.82 776775.62,3296825.88 776775.62,3296825.88 776787.94,3296837.89 776787.94,3296837.89 776801.54,3296851.13 776801.54,3296851.13 776814.65,3296863.93 776814.65,3296863.93 776824.76,3296873.77 776824.76,3296873.77 776837.22,3296886.03 776837.22,3296886.03 776849.28,3296897.77 776849.28,3296897.77 776860.19,3296908.37 776860.19,3296908.37 776881.41,3296929.05 776881.41,3296929.05 776902.11,3296949.33 776902.11,3296949.33 776911.84,3296958.72 776911.84,3296958.72 776920.27,3296966.58">
        <lane index="0" width="3.66" type="shoulder" disallow="all" />
        <lane index="1" width="3.66" />
        <lane index="2" width="3.66" />
        <lane index="3" width="3.66" />
        <lane index="4" width="3.66" type="shoulder" disallow="all" />
    </edge>
    <edge id="763.0" from="j_merge_end_43" to="node_750_start" numLanes="6" speed="13.89" type="town" shape="779275.18,3297478.23 779289.25,3297479.31 779289.25,3297479.31 779305.14,3297480.43 779305.14,3297480.43 779322.84,3297481.63 779322.84,3297481.63 779351.96,3297483.47">
        <lane index="0" width="3.66" type="shoulder" disallow="all" />
        <lane index="1" width="3.66" />
        <lane index="2" width="3.66" />
        <lane index="3" width="3.66" />
        <lane index="4" width="3.66" />
        <lane index="5" width="3.66" type="shoulder" disallow="all" />
    </edge>
    <edge id="765.0" from="node_765_start" to="j_merge_start_42" numLanes="1" speed="13.89" type="town" shape="774810.96,3295850.46 774811.32,3295856.78 774811.32,3295856.78 774812.38,3295861.89 774812.38,3295861.89 774813.81,3295866.39 774813.81,3295866.39 774815.16,3295869.59 774815.16,3295869.59 774818.11,3295874.83 774818.11,3295874.83 774821.24,3295878.90 774821.24,3295878.90 774825.50,3295882.89 774825.50,3295882.89 774828.03,3295884.63">
        <lane index="0" width="3.66" />
    </edge>
    <edge id="767.0" from="node_745_end" to="node_760_start" numLanes="6" speed="13.89" type="town" shape="775339.35,3296100.75 775356.77,3296106.98 775356.77,3296106.98 775374.61,3296114.02 775374.61,3296114.02 775398.55,3296123.03 775398.55,3296123.03 775425.48,3296133.17 775425.48,3296133.17 775453.54,3296143.72 775453.54,3296143.72 775473.64,3296151.28 775473.64,3296151.28 775495.95,3296159.69 775495.95,3296159.69 775525.06,3296170.62 775525.06,3296170.62 775552.28,3296180.89 775552.28,3296180.89 775580.24,3296191.39 775580.24,3296191.39 775602.01,3296199.63 775602.01,3296199.63 775636.20,3296212.45 775636.20,3296212.45 775646.24,3296216.24">
        <lane index="0" width="3.66" type="shoulder" disallow="all" />
        <lane index="1" width="3.66" />
        <lane index="2" width="3.66" />
        <lane index="3" width="3.66" />
        <lane index="4" width="3.66" />
        <lane index="5" width="3.66" type="shoulder" disallow="all" />
    </edge>
    <edge id="768.0" from="node_759_end" to="node_762_start" numLanes="5" speed="13.89" type="town" shape="776685.27,3296737.58 776693.82,3296745.96 776693.82,3296745.96 776708.05,3296759.91 776708.05,3296759.91 776715.39,3296766.98">
        <lane index="0" width="3.66" type="shoulder" disallow="all" />
        <lane index="1" width="3.66" />
        <lane index="2" width="3.66" />
        <lane index="3" width="3.66" />
        <lane index="4" width="3.66" type="shoulder" disallow="all" />
    </edge>
    <edge id="769.0" from="node_744_end" to="node_748_start" numLanes="5" speed="13.89" type="town" shape="774257.14,3295693.38 774272.03,3295699.00 774272.03,3295699.00 774287.09,3295704.66 774287.09,3295704.66 774302.87,3295710.65">
        <lane index="0" width="3.66" type="shoulder" disallow="all" />
        <lane index="1" width="3.66" />
        <lane index="2" width="3.66" />
        <lane index="3" width="3.66" />
        <lane index="4" width="3.66" type="shoulder" disallow="all" />
    </edge>
    <edge id="770.0" from="node_756_end" to="node_758_start" numLanes="5" speed="13.89" type="town" shape="778604.31,3297421.84 778626.23,3297423.27 778626.23,3297423.27 778650.22,3297424.72 778650.22,3297424.72 778682.94,3297426.79 778682.94,3297426.79 778698.58,3297427.84">
        <lane index="0" width="3.66" type="shoulder" disallow="all" />
        <lane index="1" width="3.66" />
        <lane index="2" width="3.66" />
        <lane index="3" width="3.66" />
        <lane index="4" width="3.66" type="shoulder" disallow="all" />
    </edge>
    <edge id="772.0" from="junction_98" to="node_772_end" numLanes="1" speed="13.89" type="town" shape="773937.31,3295565.80 773950.76,3295568.60 773950.76,3295568.60 773967.79,3295572.10 773967.79,3295572.10 773988.98,3295576.87 773988.98,3295576.87 774013.00,3295583.05 774013.00,3295583.05 774033.40,3295588.84 774033.40,3295588.84 774050.98,3295594.28 774050.98,3295594.28 774069.81,3295600.49 774069.81,3295600.49 774087.93,3295606.85 774087.93,3295606.85 774106.83,3295613.73 774106.83,3295613.73 774122.26,3295619.68 774122.26,3295619.68 774141.80,3295627.00 774141.80,3295627.00 774159.79,3295633.52 774159.79,3295633.52 774180.14,3295640.71 774180.14,3295640.71 774207.37,3295649.77">
        <lane index="0" width="3.66" />
    </edge>
    <edge id="773.0" from="junction_100" to="node_773_end" numLanes="1" speed="13.89" type="town" shape="777290.70,3297183.99 777298.51,3297186.46 777298.51,3297186.46 777310.61,3297190.20 777310.61,3297190.20 777321.07,3297193.23 777321.07,3297193.23 777330.87,3297195.92 777330.87,3297195.92 777344.06,3297199.34 777344.06,3297199.34 777357.02,3297202.60 777357.02,3297202.60 777370.49,3297205.91">
        <lane index="0" width="3.66" />
    </edge>
    <edge id="775.0" from="node_773_end" to="node_775_end" numLanes="1" speed="13.89" type="town" shape="777370.49,3297205.91 777382.07,3297208.70 777382.07,3297208.70 777396.57,3297212.23 777396.57,3297212.23 777411.35,3297215.81 777411.35,3297215.81 777426.92,3297219.66 777426.92,3297219.66 777439.55,3297222.77 777439.55,3297222.77 777451.01,3297225.59 777451.01,3297225.59 777461.36,3297228.01 777461.36,3297228.01 777472.08,3297230.62 777472.08,3297230.62 777485.04,3297233.83 777485.04,3297233.83 777497.50,3297237.02 777497.50,3297237.02 777506.09,3297239.19">
        <lane index="0" width="3.66" />
    </edge>
    <edge id="778.0" from="node_778_start" to="j_merge_start_43" numLanes="1" speed="13.89" type="town" shape="778908.08,3297414.99 778922.10,3297416.56 778922.10,3297416.56 778942.63,3297418.95 778942.63,3297418.95 778964.76,3297421.80 778964.76,3297421.80 778985.01,3297424.59 778985.01,3297424.59 779007.93,3297427.93 779007.93,3297427.93 779035.41,3297432.11 779035.41,3297432.11 779057.85,3297435.49 779057.85,3297435.49 779081.46,3297439.09 779081.46,3297439.09 779100.81,3297442.07">
        <lane index="0" width="3.66" />
    </edge>
    <edge id="783.0" from="node_750_end" to="node_783_end" numLanes="6" speed="13.89" type="town" shape="779921.33,3297519.26 779924.40,3297519.45 779924.40,3297519.45 779934.65,3297520.07 779934.65,3297520.07 779950.65,3297521.11 779950.65,3297521.11 779960.32,3297521.70 779960.32,3297521.70 779969.18,3297522.26">
        <lane index="0" width="3.66" type="shoulder" disallow="all" />
        <lane index="1" width="3.66" />
        <lane index="2" width="3.66" />
        <lane index="3" width="3.66" />
        <lane index="4" width="3.66" />
        <lane index="5" width="3.66" type="shoulder" disallow="all" />
    </edge>
    <edge id="786.0" from="node_786_start" to="node_786_end" numLanes="5" speed="13.89" type="town" shape="780615.13,3297523.61 780619.10,3297523.15 780619.10,3297523.15 780631.37,3297521.76 780631.37,3297521.76 780647.01,3297519.99 780647.01,3297519.99 780662.55,3297518.24 780662.55,3297518.24 780678.03,3297516.49 780678.03,3297516.49 780686.10,3297515.56">
        <lane index="0" width="3.66" type="shoulder" disallow="all" />
        <lane index="1" width="3.66" />
        <lane index="2" width="3.66" />
        <lane index="3" width="3.66" />
        <lane index="4" width="3.66" type="shoulder" disallow="all" />
    </edge>
    <edge id="787.0" from="node_786_end" to="node_787_end" numLanes="5" speed="13.89" type="town" shape="780686.10,3297515.56 780690.11,3297515.09 780690.11,3297515.09 780706.44,3297513.23 780706.44,3297513.23 780721.45,3297511.53 780721.45,3297511.53 780739.51,3297509.47 780739.51,3297509.47 780757.01,3297507.46 780757.01,3297507.46 780772.89,3297505.64 780772.89,3297505.64 780790.58,3297503.62 780790.58,3297503.62 780807.16,3297501.76 780807.16,3297501.76 780822.64,3297499.98 780822.64,3297499.98 780838.88,3297498.12 780838.88,3297498.12 780850.78,3297496.75 780850.78,3297496.75 780863.07,3297495.32 780863.07,3297495.32 780878.11,3297493.61 780878.11,3297493.61 780892.72,3297491.94 780892.72,3297491.94 780906.97,3297490.29 780906.97,3297490.29 780920.54,3297488.77 780920.54,3297488.77 780933.99,3297487.23 780933.99,3297487.23 780951.50,3297485.20 780951.50,3297485.20 780967.24,3297483.43 780967.24,3297483.43 780981.56,3297481.79 780981.56,3297481.79 780995.69,3297480.14 780995.69,3297480.14 781009.78,3297478.54 781009.78,3297478.54 781024.30,3297476.92 781024.30,3297476.92 781040.89,3297475.03 781040.89,3297475.03 781055.47,3297473.38 781055.47,3297473.38 781072.52,3297471.44 781072.52,3297471.44 781087.16,3297469.79 781087.16,3297469.79 781101.13,3297468.19 781101.13,3297468.19 781117.60,3297466.31 781117.60,3297466.31 781136.66,3297464.12 781136.66,3297464.12 781155.03,3297462.03 781155.03,3297462.03 781172.60,3297460.03 781172.60,3297460.03 781188.87,3297458.16 781188.87,3297458.16 781206.44,3297456.17 781206.44,3297456.17 781224.57,3297454.09 781224.57,3297454.09 781244.26,3297451.88 781244.26,3297451.88 781260.95,3297450.01 781260.95,3297450.01 781279.06,3297447.96 781279.06,3297447.96 781297.33,3297445.86 781297.33,3297445.86 781315.30,3297443.82 781315.30,3297443.82 781334.63,3297441.65 781334.63,3297441.65 781352.40,3297439.58 781352.40,3297439.58 781370.03,3297437.59 781370.03,3297437.59 781381.09,3297436.31 781381.09,3297436.31 781395.92,3297434.65 781395.92,3297434.65 781416.22,3297432.33 781416.22,3297432.33 781433.33,3297430.34 781433.33,3297430.34 781449.62,3297428.47 781449.62,3297428.47 781467.52,3297426.40 781467.52,3297426.40 781484.79,3297424.46 781484.79,3297424.46 781497.81,3297422.95 781497.81,3297422.95 781515.68,3297420.92 781515.68,3297420.92 781534.30,3297418.82 781534.30,3297418.82 781551.63,3297416.81 781551.63,3297416.81 781570.99,3297414.61 781570.99,3297414.61 781589.55,3297412.50 781589.55,3297412.50 781608.14,3297410.38 781608.14,3297410.38 781628.33,3297408.08 781628.33,3297408.08 781648.12,3297405.81 781648.12,3297405.81 781666.16,3297403.76 781666.16,3297403.76 781680.84,3297402.08 781680.84,3297402.08 781689.34,3297401.10">
        <lane index="0" width="3.66" type="shoulder" disallow="all" />
        <lane index="1" width="3.66" />
        <lane index="2" width="3.66" />
        <lane index="3" width="3.66" />
        <lane index="4" width="3.66" type="shoulder" disallow="all" />
    </edge>
    <edge id="789.0" from="node_783_end" to="junction_103" numLanes="5" speed="13.89" type="town" shape="779969.18,3297522.26 779976.86,3297522.74 779976.86,3297522.74 779990.11,3297523.58 779990.11,3297523.58 780005.16,3297524.50 780005.16,3297524.50 780011.81,3297524.91">
        <lane index="0" width="3.66" />
        <lane index="1" width="3.66" />
        <lane index="2" width="3.66" />
        <lane index="3" width="3.66" />
        <lane index="4" width="3.66" type="shoulder" disallow="all" />
    </edge>
    <edge id="799.0" from="junction_103" to="node_799_end" numLanes="1" speed="13.89" type="town" shape="780138.59,3297512.61 780156.97,3297512.61 780156.97,3297512.61 780179.19,3297512.64 780179.19,3297512.64 780199.86,3297512.65 780199.86,3297512.65 780206.82,3297512.65 780206.82,3297512.65 780237.24,3297512.64 780237.24,3297512.64 780268.06,3297512.64 780268.06,3297512.64 780293.09,3297512.61 780293.09,3297512.61 780316.89,3297512.64">
        <lane index="0" width="3.66" />
    </edge>