<?xml version='1.0' encoding='utf-8'?>
<edges>
    <edge id="346.0" from="node_346_start" to="j_merge_start_24" numLanes="2" speed="13.89" type="town" shape="636655.19,3281178.91 636661.49,3281180.17 636661.49,3281180.17 636677.99,3281183.47 636677.99,3281183.47 636693.40,3281186.57 636693.40,3281186.57 636704.75,3281188.84 636704.75,3281188.84 636716.29,3281191.14 636716.29,3281191.14 636723.09,3281192.48">
        <lane index="0" width="3.66" />
        <lane index="1" width="3.66" />
    </edge>
    <edge id="348.0" from="j_merge_end_24" to="node_348_end" numLanes="3" speed="13.89" type="town" shape="636912.69,3281230.29 636917.25,3281231.20 636917.25,3281231.20 636928.19,3281233.39 636928.19,3281233.39 636941.09,3281235.99 636941.09,3281235.99 636950.50,3281237.88 636950.50,3281237.88 636953.24,3281238.43 636953.24,3281238.43 636960.29,3281239.84 636960.29,3281239.84 636969.64,3281241.71 636969.64,3281241.71 636977.83,3281243.35 636977.83,3281243.35 636986.39,3281245.06 636986.39,3281245.06 636994.00,3281246.58 636994.00,3281246.58 637002.89,3281248.34 637002.89,3281248.34 637012.79,3281250.30 637012.79,3281250.30 637020.64,3281251.83 637020.64,3281251.83 637028.66,3281253.43 637028.66,3281253.43 637038.02,3281255.28 637038.02,3281255.28 637046.36,3281256.95 637046.36,3281256.95 637054.41,3281258.55 637054.41,3281258.55 637064.17,3281260.49 637064.17,3281260.49 637072.28,3281262.11 637072.28,3281262.11 637083.38,3281264.36 637083.38,3281264.36 637098.46,3281267.41 637098.46,3281267.41 637115.96,3281270.85 637115.96,3281270.85 637136.11,3281274.80 637136.11,3281274.80 637153.69,3281278.20 637153.69,3281278.20 637172.67,3281281.84 637172.67,3281281.84 637192.01,3281285.53 637192.01,3281285.53 637208.30,3281288.49 637208.30,3281288.49 637224.43,3281291.28 637224.43,3281291.28 637242.09,3281294.07 637242.09,3281294.07 637257.45,3281296.35 637257.45,3281296.35 637273.74,3281298.54 637273.74,3281298.54 637290.14,3281300.54 637290.14,3281300.54 637307.14,3281302.48 637307.14,3281302.48 637322.74,3281304.09 637322.74,3281304.09 637335.27,3281305.26 637335.27,3281305.26 637347.32,3281306.32 637347.32,3281306.32 637358.31,3281307.21 637358.31,3281307.21 637370.74,3281308.18 637370.74,3281308.18 637382.62,3281309.03 637382.62,3281309.03 637392.97,3281309.66 637392.97,3281309.66 637401.24,3281310.12 637401.24,3281310.12 637408.61,3281310.50 637408.61,3281310.50 637419.10,3281311.00 637419.10,3281311.00 637430.45,3281311.44 637430.45,3281311.44 637439.09,3281311.75 637439.09,3281311.75 637448.11,3281312.01 637448.11,3281312.01 637459.12,3281312.27 637459.12,3281312.27 637470.67,3281312.48 637470.67,3281312.48 637483.60,3281312.61 637483.60,3281312.61 637497.73,3281312.59 637497.73,3281312.59 637510.22,3281312.48 637510.22,3281312.48 637523.28,3281312.25 637523.28,3281312.25 637533.64,3281312.05 637533.64,3281312.05 637544.99,3281311.83 637544.99,3281311.83 637556.99,3281311.57 637556.99,3281311.57 637572.70,3281311.26 637572.70,3281311.26 637588.71,3281310.96 637588.71,3281310.96 637602.44,3281310.69 637602.44,3281310.69 637615.97,3281310.45 637615.97,3281310.45 637628.13,3281310.20 637628.13,3281310.20 637641.74,3281309.94 637641.74,3281309.94 637654.91,3281309.65 637654.91,3281309.65 637668.18,3281309.35 637668.18,3281309.35 637680.01,3281309.09 637680.01,3281309.09 637693.46,3281308.78 637693.46,3281308.78 637714.97,3281308.28 637714.97,3281308.28 637728.09,3281307.97 637728.09,3281307.97 637748.48,3281307.50 637748.48,3281307.50 637765.87,3281307.10 637765.87,3281307.10 637779.74,3281306.77 637779.74,3281306.77 637794.13,3281306.44 637794.13,3281306.44 637815.98,3281305.90 637815.98,3281305.90 637833.22,3281305.59 637833.22,3281305.59 637852.31,3281305.15 637852.31,3281305.15 637869.32,3281304.77 637869.32,3281304.77 637886.36,3281304.41 637886.36,3281304.41 637905.37,3281303.96 637905.37,3281303.96 637922.73,3281303.59 637922.73,3281303.59 637945.79,3281303.09 637945.79,3281303.09 637964.66,3281302.66 637964.66,3281302.66 637982.81,3281302.27 637982.81,3281302.27 637998.38,3281301.91 637998.38,3281301.91 638016.18,3281301.50 638016.18,3281301.50 638032.98,3281301.12 638032.98,3281301.12 638045.56,3281300.82 638045.56,3281300.82 638060.03,3281300.49 638060.03,3281300.49 638073.47,3281300.20 638073.47,3281300.20 638086.66,3281299.88 638086.66,3281299.88 638097.30,3281299.65 638097.30,3281299.65 638108.48,3281299.39 638108.48,3281299.39 638119.78,3281299.16 638119.78,3281299.16 638131.03,3281298.95 638131.03,3281298.95 638145.74,3281298.65 638145.74,3281298.65 638158.80,3281298.35 638158.80,3281298.35 638173.33,3281298.03 638173.33,3281298.03 638182.86,3281297.81 638182.86,3281297.81 638193.24,3281297.56 638193.24,3281297.56 638205.55,3281297.31 638205.55,3281297.31 638214.13,3281297.12 638214.13,3281297.12 638227.34,3281296.84 638227.34,3281296.84 638238.75,3281296.59 638238.75,3281296.59 638251.43,3281296.29 638251.43,3281296.29 638262.15,3281296.05 638262.15,3281296.05 638273.18,3281295.81 638273.18,3281295.81 638285.49,3281295.51 638285.49,3281295.51 638297.36,3281295.24 638297.36,3281295.24 638307.42,3281295.03 638307.42,3281295.03 638318.96,3281294.76 638318.96,3281294.76 638335.25,3281294.39 638335.25,3281294.39 638351.57,3281294.01 638351.57,3281294.01 638370.49,3281293.55 638370.49,3281293.55 638390.06,3281293.12 638390.06,3281293.12 638402.54,3281292.85 638402.54,3281292.85 638424.60,3281292.35 638424.60,3281292.35 638442.43,3281291.94 638442.43,3281291.94 638459.74,3281291.60 638459.74,3281291.60 638478.48,3281291.17 638478.48,3281291.17 638495.34,3281290.81 638495.34,3281290.81 638513.20,3281290.43 638513.20,3281290.43 638530.17,3281290.09 638530.17,3281290.09 638548.51,3281289.67 638548.51,3281289.67 638567.40,3281289.23 638567.40,3281289.23 638581.61,3281288.90 638581.61,3281288.90 638596.97,3281288.54 638596.97,3281288.54 638611.55,3281288.23 638611.55,3281288.23 638622.99,3281287.99 638622.99,3281287.99 638637.70,3281287.70 638637.70,3281287.70 638648.55,3281287.46 638648.55,3281287.46 638665.73,3281287.07 638665.73,3281287.07 638675.84,3281286.85 638675.84,3281286.85 638692.27,3281286.48 638692.27,3281286.48 638707.06,3281286.16 638707.06,3281286.16 638721.86,3281285.83 638721.86,3281285.83 638736.71,3281285.49 638736.71,3281285.49 638762.57,3281284.93 638762.57,3281284.93 638777.96,3281284.59 638777.96,3281284.59 638799.46,3281284.11 638799.46,3281284.11 638817.50,3281283.71 638817.50,3281283.71 638837.31,3281283.25 638837.31,3281283.25 638845.85,3281283.04 638845.85,3281283.04 638860.49,3281282.68 638860.49,3281282.68 638877.42,3281282.30 638877.42,3281282.30 638891.65,3281281.97 638891.65,3281281.97 638909.57,3281281.56 638909.57,3281281.56 638926.73,3281281.19 638926.73,3281281.19 638941.82,3281280.82 638941.82,3281280.82 638953.79,3281280.58 638953.79,3281280.58 638971.79,3281280.16 638971.79,3281280.16 638987.73,3281279.80 638987.73,3281279.80 639011.64,3281279.23 639011.64,3281279.23 639030.99,3281278.79 639030.99,3281278.79 639052.39,3281278.31 639052.39,3281278.31 639074.21,3281277.85 639074.21,3281277.85 639094.46,3281277.39 639094.46,3281277.39 639114.75,3281276.95 639114.75,3281276.95 639137.39,3281276.40 639137.39,3281276.40 639159.38,3281275.83 639159.38,3281275.83 639178.67,3281275.23 639178.67,3281275.23 639195.07,3281274.68 639195.07,3281274.68 639209.77,3281274.13 639209.77,3281274.13 639223.80,3281273.52 639223.80,3281273.52 639237.38,3281272.92 639237.38,3281272.92 639256.32,3281272.05 639256.32,3281272.05 639275.69,3281271.08 639275.69,3281271.08 639292.03,3281270.17 639292.03,3281270.17 639310.32,3281269.10 639310.32,3281269.10 639328.97,3281268.05 639328.97,3281268.05 639349.51,3281266.85 639349.51,3281266.85 639367.22,3281265.90 639367.22,3281265.90 639384.91,3281264.93 639384.91,3281264.93 639405.25,3281263.80 639405.25,3281263.80 639422.80,3281262.82 639422.80,3281262.82 639437.19,3281261.97 639437.19,3281261.97 639451.51,3281261.17 639451.51,3281261.17 639460.49,3281260.70 639460.49,3281260.70 639493.78,3281258.86 639493.78,3281258.86 639585.36,3281253.70 639585.36,3281253.70 639660.50,3281249.33 639660.50,3281249.33 639771.33,3281242.95 639771.33,3281242.95 639860.57,3281238.07 639860.57,3281238.07 639976.64,3281231.54 639976.64,3281231.54 640149.41,3281221.66 640149.41,3281221.66 640258.69,3281215.35 640258.69,3281215.35 640375.40,3281208.64 640375.40,3281208.64 640428.48,3281205.62 640428.48,3281205.62 640525.79,3281200.14 640525.79,3281200.14 640595.14,3281196.25 640595.14,3281196.25 640650.12,3281193.09 640650.12,3281193.09 640686.65,3281191.08">
        <lane index="0" width="3.66" type="shoulder" disallow="all" />
        <lane index="1" width="3.66" />
        <lane index="2" width="3.66" />
    </edge>
    <edge id="349.0" from="node_349_start" to="node_346_start" numLanes="3" speed="13.89" type="town" shape="636300.43,3281108.05 636305.48,3281109.03 636305.48,3281109.03 636315.18,3281110.96 636315.18,3281110.96 636325.27,3281113.02 636325.27,3281113.02 636335.99,3281115.16 636335.99,3281115.16 636346.06,3281117.15 636346.06,3281117.15 636355.22,3281118.94 636355.22,3281118.94 636363.83,3281120.65 636363.83,3281120.65 636375.81,3281123.01 636375.81,3281123.01 636386.74,3281125.16 636386.74,3281125.16 636394.73,3281126.77 636394.73,3281126.77 636403.58,3281128.52 636403.58,3281128.52 636413.33,3281130.46 636413.33,3281130.46 636423.23,3281132.43 636423.23,3281132.43 636432.97,3281134.40 636432.97,3281134.40 636441.05,3281136.00 636441.05,3281136.00 636448.80,3281137.56 636448.80,3281137.56 636454.52,3281138.72 636454.52,3281138.72 636463.38,3281140.51 636463.38,3281140.51 636471.34,3281142.11 636471.34,3281142.11 636484.99,3281144.86 636484.99,3281144.86 636495.92,3281147.03 636495.92,3281147.03 636510.93,3281150.05 636510.93,3281150.05 636525.12,3281152.90 636525.12,3281152.90 636538.82,3281155.63 636538.82,3281155.63 636552.49,3281158.36 636552.49,3281158.36 636565.47,3281160.97 636565.47,3281160.97 636578.32,3281163.54 636578.32,3281163.54 636589.00,3281165.67 636589.00,3281165.67 636602.69,3281168.42 636602.69,3281168.42 636615.12,3281170.90 636615.12,3281170.90 636629.42,3281173.75 636629.42,3281173.75 636646.93,3281177.26 636646.93,3281177.26 636655.19,3281178.91">
        <lane index="0" width="3.66" type="shoulder" disallow="all" />
        <lane index="1" width="3.66" />
        <lane index="2" width="3.66" />
    </edge>
    <edge id="352.0" from="node_352_start" to="j_merge_start_24" numLanes="1" speed="13.89" type="town" shape="636597.99,3281138.34 636611.87,3281144.33 636611.87,3281144.33 636624.72,3281149.60 636624.72,3281149.60 636638.52,3281155.07 636638.52,3281155.07 636651.73,3281160.13 636651.73,3281160.13 636660.73,3281163.54 636660.73,3281163.54 636673.11,3281168.01 636673.11,3281168.01 636685.20,3281172.27 636685.20,3281172.27 636698.39,3281176.83 636698.39,3281176.83 636710.65,3281180.93 636710.65,3281180.93 636720.18,3281184.00 636720.18,3281184.00 636724.34,3281185.25">
        <lane index="0" width="3.66" />
    </edge>
    <edge id="362.0" from="node_362_start" to="node_362_end" numLanes="3" speed="13.89" type="town" shape="642090.82,3281111.32 642155.57,3281107.69">
        <lane index="0" width="3.66" type="shoulder" disallow="all" />
        <lane index="1" width="3.66" />
        <lane index="2" width="3.66" />
    </edge>
    <edge id="363.0" from="junction_81" to="node_363_end" numLanes="2" speed="13.89" type="town" shape="644146.85,3280994.82 644182.00,3280992.82 644182.00,3280992.82 644229.19,3280990.01">
        <lane index="0" width="3.66" />
        <lane index="1" width="3.66" />
    </edge>
    <edge id="364.0" from="node_363_end" to="node_364_end" numLanes="3" speed="13.89" type="town" shape="644229.19,3280990.01 644260.45,3280988.27 644260.45,3280988.27 644344.45,3280983.54 644344.45,3280983.54 644410.67,3280979.71 644410.67,3280979.71 644478.22,3280975.89 644478.22,3280975.89 644512.34,3280974.01 644512.34,3280974.01 644583.47,3280970.05 644583.47,3280970.05 644642.90,3280966.76 644642.90,3280966.76 644668.05,3280965.41">
        <lane index="0" width="3.66" type="shoulder" disallow="all" />
        <lane index="1" width="3.66" />
        <lane index="2" width="3.66" />
    </edge>
    <edge id="365.0" from="node_365_start" to="node_365_end" numLanes="3" speed="13.89" type="town" shape="640793.95,3281185.02 640834.46,3281182.77 640834.46,3281182.77 640917.04,3281177.99 640917.04,3281177.99 641020.22,3281172.10 641020.22,3281172.10 641132.74,3281165.65 641132.74,3281165.65 641243.50,3281159.41 641243.50,3281159.41 641359.99,3281152.70 641359.99,3281152.70 641657.73,3281135.93 641657.73,3281135.93 641778.22,3281129.04 641778.22,3281129.04 641798.89,3281127.91 641798.89,3281127.91 641901.45,3281122.16 641901.45,3281122.16 641996.70,3281116.68 641996.70,3281116.68 642014.84,3281115.64 642014.84,3281115.64 642037.80,3281114.34">
        <lane index="0" width="3.66" type="shoulder" disallow="all" />
        <lane index="1" width="3.66" />
        <lane index="2" width="3.66" />
    </edge>
    <edge id="366.0" from="node_348_end" to="node_366_end" numLanes="3" speed="13.89" type="town" shape="640686.65,3281191.08 640739.03,3281188.15">
        <lane index="0" width="3.66" type="shoulder" disallow="all" />
        <lane index="1" width="3.66" />
        <lane index="2" width="3.66" />
    </edge>
    <edge id="367.0" from="node_365_end" to="node_362_start" numLanes="3" speed="13.89" type="town" shape="642037.80,3281114.34 642057.46,3281113.19 642057.46,3281113.19 642090.82,3281111.32">
        <lane index="0" width="3.66" type="shoulder" disallow="all" />
        <lane index="1" width="3.66" />
        <lane index="2" width="3.66" />
    </edge>
    <edge id="370.0" from="node_362_end" to="junction_81" numLanes="3" speed="13.89" type="town" shape="642155.57,3281107.69 642253.86,3281102.11 642253.86,3281102.11 642392.57,3281094.14 642392.57,3281094.14 642514.63,3281087.25 642514.63,3281087.25 642661.99,3281078.99 642661.99,3281078.99 642864.33,3281067.52 642864.33,3281067.52 642945.24,3281063.04 642945.24,3281063.04 643047.12,3281057.21 643047.12,3281057.21 643148.60,3281051.50 643148.60,3281051.50 643298.04,3281043.05 643298.04,3281043.05 643558.23,3281028.35 643558.23,3281028.35 643623.12,3281024.72 643623.12,3281024.72 643840.34,3281012.24 643840.34,3281012.24 643925.37,3281007.37 643925.37,3281007.37 644045.00,3281000.61 644045.00,3281000.61 644076.37,3280998.81">
        <lane index="0" width="3.66" type="shoulder" disallow="all" />
        <lane index="1" width="3.66" />
        <lane index="2" width="3.66" />
    </edge>
    <edge id="372.0" from="node_366_end" to="node_365_start" numLanes="3" speed="13.89" type="town" shape="640739.03,3281188.15 640776.19,3281186.01 640776.19,3281186.01 640793.95,3281185.02">
        <lane index="0" width="3.66" type="shoulder" disallow="all" />
        <lane index="1" width="3.66" />
        <lane index="2" width="3.66" />
    </edge>
    <edge id="379.0" from="node_379_start" to="node_379_end" numLanes="1" speed="13.89" type="town" shape="644228.04,3280975.08 644255.88,3280970.71 644255.88,3280970.71 644305.56,3280963.00 644305.56,3280963.00 644346.96,3280957.04 644346.96,3280957.04 644383.68,3280951.78 644383.68,3280951.78 644414.29,3280947.40">
        <lane index="0" width="3.66" />
    </edge>
    <edge id="380.0" from="junction_81" to="node_379_start" numLanes="1" speed="13.89" type="town" shape="644146.52,3280987.42 644171.60,3280983.73 644171.60,3280983.73 644228.04,3280975.08">
        <lane index="0" width="3.66" />
    </edge>
    <edge id="merge_zone_24" from="j_merge_start_24" to="j_merge_end_24" numLanes="3" speed="13.89" name="Merge zone 24" type="highway_merge" shape="636775.89,3281203.03 636775.89,3281203.03 636788.56,3281205.55 636788.56,3281205.55 636802.48,3281208.34 636802.48,3281208.34 636816.23,3281211.07 636816.23,3281211.07 636829.40,3281213.70 636829.40,3281213.70 636844.47,3281216.66 636844.47,3281216.66 636858.86,3281219.53 636858.86,3281219.53 636869.90,3281221.72">
        <lane index="0" width="3.66" />
        <lane index="1" width="3.66" />
        <lane index="2" width="3.66" />
    </edge>
</edges>