<?xml version="1.0" encoding="UTF-8"?>

<!-- generated on 2025-10-19 17:35:16 by Eclipse SUMO netconvert Version 1.23.1
<netconvertConfiguration xmlns:xsi="http://www.w3.org/2001/XMLSchema-instance" xsi:noNamespaceSchemaLocation="http://sumo.dlr.de/xsd/netconvertConfiguration.xsd">

    <input>
        <node-files value="/home/sdai/harry/TeraSim/jupiter/eb/jupiter_eb_tiles/tile_0047/tile_0047.nod.xml"/>
        <edge-files value="/home/sdai/harry/TeraSim/jupiter/eb/jupiter_eb_tiles/tile_0047/tile_0047.edg.xml"/>
        <connection-files value="/home/sdai/harry/TeraSim/jupiter/eb/jupiter_eb_tiles/tile_0047/tile_0047.con.xml"/>
    </input>

    <output>
        <output-file value="/home/sdai/harry/TeraSim/jupiter/eb/jupiter_eb_tiles/tile_0047/tile_0047.net.xml"/>
        <output.street-names value="true"/>
        <output.original-names value="true"/>
    </output>

    <processing>
        <geometry.remove value="false"/>
        <geometry.min-dist value="0.5"/>
        <edges.join value="false"/>
    </processing>

    <junctions>
        <no-internal-links value="false"/>
        <no-turnarounds value="true"/>
        <junctions.join value="true"/>
        <junctions.join-dist value="10"/>
        <junctions.corner-detail value="5"/>
        <junctions.internal-link-detail value="5"/>
        <junctions.limit-turn-speed value="5.5"/>
        <rectangular-lane-cut value="true"/>
        <check-lane-foes.all value="true"/>
    </junctions>

</netconvertConfiguration>
-->

<net version="1.20" junctionCornerDetail="5" junctionLinkDetail="5" rectangularLaneCut="true" limitTurnSpeed="5.50" checkLaneFoesAll="1" xmlns:xsi="http://www.w3.org/2001/XMLSchema-instance" xsi:noNamespaceSchemaLocation="http://sumo.dlr.de/xsd/net_file.xsd">

    <location netOffset="-636300.43,-3280947.40" convBoundary="0.00,0.00,8367.62,365.21" origBoundary="0.00,0.00,644721.87,3281312.61" projParameter="!"/>

    <edge id=":j_merge_end_24_0" function="internal">
        <lane id=":j_merge_end_24_0_0" index="0" speed="13.89" length="43.88" width="3.66" shape="571.25,265.35 581.86,268.63 591.94,273.22 602.02,277.81 612.62,281.10"/>
        <lane id=":j_merge_end_24_0_1" index="1" speed="13.89" length="43.88" width="3.66" shape="570.54,268.94 613.34,277.51"/>
        <lane id=":j_merge_end_24_0_2" index="2" speed="13.89" length="43.88" width="3.66" shape="569.83,272.53 612.62,281.10"/>
    </edge>
    <edge id=":j_merge_start_24_0" function="internal">
        <lane id=":j_merge_start_24_0_0" index="0" speed="13.89" length="55.19" width="3.66" shape="423.15,235.71 431.56,237.62 446.48,240.63 463.26,243.92 477.25,246.66"/>
    </edge>
    <edge id=":j_merge_start_24_1" function="internal">
        <lane id=":j_merge_start_24_1_0" index="0" speed="13.89" length="55.37" width="3.66" shape="422.24,239.40 476.53,250.25"/>
        <lane id=":j_merge_start_24_1_1" index="1" speed="13.89" length="55.37" width="3.66" shape="421.53,242.99 475.82,253.84"/>
    </edge>
    <edge id=":junction_81_0" function="internal">
        <lane id=":junction_81_0_0" index="0" speed="13.89" length="73.65" width="3.66" shape="7775.63,45.93 7792.69,44.40 7815.99,41.80 7837.40,39.23 7848.82,37.77"/>
    </edge>
    <edge id=":junction_81_1" function="internal">
        <lane id=":junction_81_1_0" index="0" speed="13.89" length="73.72" width="3.66" shape="7775.63,45.93 7849.23,41.76"/>
        <lane id=":junction_81_1_1" index="1" speed="13.89" length="73.72" width="3.66" shape="7775.84,49.59 7849.44,45.42"/>
    </edge>
    <edge id=":node_346_start_0" function="internal">
        <lane id=":node_346_start_0_0" index="0" speed="13.89" length="3.00" width="3.66" shape="354.37,225.83 357.31,226.42"/>
        <lane id=":node_346_start_0_1" index="1" speed="13.89" length="3.00" width="3.66" shape="353.65,229.42 356.59,230.01"/>
    </edge>
    <edge id=":node_348_end_0" function="internal">
        <lane id=":node_348_end_0_0" index="0" speed="13.89" length="0.30" width="3.66" shape="4385.77,238.21 4386.07,238.19"/>
        <lane id=":node_348_end_0_1" index="1" speed="13.89" length="0.30" width="3.66" shape="4385.97,241.86 4386.27,241.85"/>
    </edge>
    <edge id=":node_362_end_0" function="internal">
        <lane id=":node_362_end_0_0" index="0" speed="13.89" length="0.30" width="3.66" shape="5854.68,154.82 5854.98,154.80"/>
        <lane id=":node_362_end_0_1" index="1" speed="13.89" length="0.30" width="3.66" shape="5854.89,158.47 5855.19,158.46"/>
    </edge>
    <edge id=":node_362_start_0" function="internal">
        <lane id=":node_362_start_0_0" index="0" speed="13.89" length="0.10" width="3.66" shape="5790.09,158.44 5790.09,158.44"/>
        <lane id=":node_362_start_0_1" index="1" speed="13.89" length="0.10" width="3.66" shape="5790.29,162.09 5790.29,162.09"/>
    </edge>
    <edge id=":node_363_end_0" function="internal">
        <lane id=":node_363_end_0_0" index="0" speed="13.89" length="3.00" width="3.66" shape="7926.95,37.22 7929.95,37.05"/>
        <lane id=":node_363_end_0_1" index="1" speed="13.89" length="3.00" width="3.66" shape="7927.16,40.87 7930.15,40.70"/>
    </edge>
    <edge id=":node_365_end_0" function="internal">
        <lane id=":node_365_end_0_0" index="0" speed="13.89" length="0.30" width="3.66" shape="5736.91,161.47 5737.21,161.45"/>
        <lane id=":node_365_end_0_1" index="1" speed="13.89" length="0.30" width="3.66" shape="5737.12,165.12 5737.42,165.11"/>
    </edge>
    <edge id=":node_365_start_0" function="internal">
        <lane id=":node_365_start_0_0" index="0" speed="13.89" length="0.30" width="3.66" shape="4493.07,232.15 4493.37,232.13"/>
        <lane id=":node_365_start_0_1" index="1" speed="13.89" length="0.30" width="3.66" shape="4493.27,235.80 4493.57,235.79"/>
    </edge>
    <edge id=":node_366_end_0" function="internal">
        <lane id=":node_366_end_0_0" index="0" speed="13.89" length="0.30" width="3.66" shape="4438.14,235.28 4438.44,235.26"/>
        <lane id=":node_366_end_0_1" index="1" speed="13.89" length="0.30" width="3.66" shape="4438.35,238.93 4438.65,238.92"/>
    </edge>
    <edge id=":node_379_start_0" function="internal">
        <lane id=":node_379_start_0_0" index="0" speed="13.89" length="0.30" width="3.66" shape="7927.18,25.90 7927.48,25.85"/>
    </edge>

    <edge id="346.0" from="node_346_start" to="j_merge_start_24" priority="-1" type="town" shape="354.76,231.51 361.06,232.77 377.56,236.07 392.97,239.17 404.32,241.44 415.86,243.74 422.66,245.08">
        <lane id="346.0_0" index="0" speed="13.89" length="66.22" width="3.66" shape="357.31,226.42 362.14,227.39 378.64,230.69 394.05,233.79 405.40,236.06 416.93,238.36 422.24,239.40"/>
        <lane id="346.0_1" index="1" speed="13.89" length="66.22" width="3.66" shape="356.59,230.01 361.42,230.98 377.92,234.28 393.33,237.38 404.68,239.65 416.22,241.95 421.53,242.99"/>
    </edge>
    <edge id="348.0" from="j_merge_end_24" to="node_348_end" priority="-1" type="town" shape="612.26,282.89 616.82,283.80 627.76,285.99 640.66,288.59 650.07,290.48 652.81,291.03 659.86,292.44 669.21,294.31 677.40,295.95 685.96,297.66 693.57,299.18 702.46,300.94 712.36,302.90 720.21,304.43 728.23,306.03 737.59,307.88 745.93,309.55 753.98,311.15 763.74,313.09 771.85,314.71 782.95,316.96 798.03,320.01 815.53,323.45 835.68,327.40 853.26,330.80 872.24,334.44 891.58,338.13 907.87,341.09 924.00,343.88 941.66,346.67 957.02,348.95 973.31,351.14 989.71,353.14 1006.71,355.08 1022.31,356.69 1034.84,357.86 1046.89,358.92 1057.88,359.81 1070.31,360.78 1082.19,361.63 1092.54,362.26 1100.81,362.72 1108.18,363.10 1118.67,363.60 1130.02,364.04 1138.66,364.35 1147.68,364.61 1158.69,364.87 1170.24,365.08 1183.17,365.21 1197.30,365.19 1209.79,365.08 1222.85,364.85 1233.21,364.65 1244.56,364.43 1256.56,364.17 1272.27,363.86 1288.28,363.56 1302.01,363.29 1315.54,363.05 1327.70,362.80 1341.31,362.54 1354.48,362.25 1367.75,361.95 1379.58,361.69 1393.03,361.38 1414.54,360.88 1427.66,360.57 1448.05,360.10 1465.44,359.70 1479.31,359.37 1493.70,359.04 1515.55,358.50 1532.79,358.19 1551.88,357.75 1568.89,357.37 1585.93,357.01 1604.94,356.56 1622.30,356.19 1645.36,355.69 1664.23,355.26 1682.38,354.87 1697.95,354.51 1715.75,354.10 1732.55,353.72 1745.13,353.42 1759.60,353.09 1773.04,352.80 1786.23,352.48 1796.87,352.25 1808.05,351.99 1819.35,351.76 1830.60,351.55 1845.31,351.25 1858.37,350.95 1872.90,350.63 1882.43,350.41 1892.81,350.16 1905.12,349.91 1913.70,349.72 1926.91,349.44 1938.32,349.19 1951.00,348.89 1961.72,348.65 1972.75,348.41 1985.06,348.11 1996.93,347.84 2006.99,347.63 2018.53,347.36 2034.82,346.99 2051.14,346.61 2070.06,346.15 2089.63,345.72 2102.11,345.45 2124.17,344.95 2142.00,344.54 2159.31,344.20 2178.05,343.77 2194.91,343.41 2212.77,343.03 2229.74,342.69 2248.08,342.27 2266.97,341.83 2281.18,341.50 2296.54,341.14 2311.12,340.83 2322.56,340.59 2337.27,340.30 2348.12,340.06 2365.30,339.67 2375.41,339.45 2391.84,339.08 2406.63,338.76 2421.43,338.43 2436.28,338.09 2462.14,337.53 2477.53,337.19 2499.03,336.71 2517.07,336.31 2536.88,335.85 2545.42,335.64 2560.06,335.28 2576.99,334.90 2591.22,334.57 2609.14,334.16 2626.30,333.79 2641.39,333.42 2653.36,333.18 2671.36,332.76 2687.30,332.40 2711.21,331.83 2730.56,331.39 2751.96,330.91 2773.78,330.45 2794.03,329.99 2814.32,329.55 2836.96,329.00 2858.95,328.43 2878.24,327.83 2894.64,327.28 2909.34,326.73 2923.37,326.12 2936.95,325.52 2955.89,324.65 2975.26,323.68 2991.60,322.77 3009.89,321.70 3028.54,320.65 3049.08,319.45 3066.79,318.50 3084.48,317.53 3104.82,316.40 3122.37,315.42 3136.76,314.57 3151.08,313.77 3160.06,313.30 3193.35,311.46 3284.93,306.30 3360.07,301.93 3470.90,295.55 3560.14,290.67 3676.21,284.14 3848.98,274.26 3958.26,267.95 4074.97,261.24 4128.05,258.22 4225.36,252.74 4294.71,248.85 4349.69,245.69 4386.22,243.68">
        <lane id="348.0_0" index="0" disallow="all" speed="13.89" length="3782.25" width="3.66" shape="614.05,273.92 618.62,274.83 629.57,277.02 642.47,279.62 651.87,281.51 654.61,282.06 661.66,283.47 671.01,285.34 679.20,286.98 687.76,288.69 695.36,290.21 704.24,291.97 714.13,293.92 721.98,295.45 730.01,297.06 739.38,298.91 747.72,300.58 755.77,302.18 765.53,304.12 773.66,305.74 784.77,307.99 799.82,311.04 817.30,314.47 837.43,318.42 854.99,321.82 873.96,325.45 893.26,329.14 909.47,332.08 925.50,334.85 943.05,337.63 958.30,339.89 974.48,342.07 990.79,344.06 1007.70,345.99 1023.21,347.59 1035.67,348.75 1047.66,349.80 1058.61,350.69 1071.00,351.66 1082.80,352.50 1093.08,353.13 1101.30,353.59 1108.63,353.96 1119.07,354.46 1130.37,354.90 1138.96,355.21 1147.92,355.47 1158.88,355.72 1170.37,355.93 1183.21,356.06 1197.26,356.04 1209.67,355.93 1222.69,355.70 1233.04,355.50 1244.38,355.28 1256.38,355.02 1272.10,354.71 1288.11,354.41 1301.84,354.14 1315.37,353.90 1327.52,353.65 1341.13,353.39 1354.28,353.10 1367.55,352.80 1379.38,352.54 1392.82,352.23 1414.33,351.73 1427.45,351.42 1447.84,350.95 1465.23,350.55 1479.10,350.22 1493.48,349.89 1515.36,349.35 1532.60,349.04 1551.68,348.60 1568.69,348.22 1585.73,347.86 1604.74,347.41 1622.11,347.04 1645.16,346.54 1664.03,346.11 1682.18,345.72 1697.74,345.36 1715.54,344.95 1732.34,344.57 1744.92,344.27 1759.40,343.94 1772.83,343.65 1786.02,343.33 1796.67,343.10 1807.85,342.84 1819.17,342.61 1830.42,342.40 1845.12,342.10 1858.17,341.80 1872.70,341.48 1882.22,341.26 1892.61,341.01 1904.93,340.76 1913.51,340.57 1926.72,340.29 1938.11,340.04 1950.79,339.74 1961.52,339.50 1972.54,339.26 1984.85,338.96 1996.73,338.69 2006.79,338.48 2018.32,338.21 2034.61,337.84 2050.93,337.46 2069.85,337.00 2089.43,336.57 2101.91,336.30 2123.96,335.80 2141.81,335.39 2159.12,335.05 2177.85,334.62 2194.72,334.26 2212.58,333.88 2229.55,333.54 2247.87,333.12 2266.76,332.68 2280.97,332.35 2296.34,331.99 2310.93,331.68 2322.38,331.44 2337.08,331.15 2347.92,330.91 2365.10,330.52 2375.21,330.30 2391.64,329.93 2406.43,329.61 2421.23,329.28 2436.08,328.94 2461.94,328.38 2477.33,328.04 2498.83,327.56 2516.87,327.16 2536.67,326.70 2545.20,326.49 2559.85,326.13 2576.78,325.75 2591.01,325.42 2608.94,325.01 2626.09,324.64 2641.19,324.27 2653.16,324.03 2671.15,323.61 2687.09,323.25 2711.00,322.68 2730.36,322.24 2751.76,321.76 2773.58,321.30 2793.83,320.84 2814.11,320.40 2836.73,319.85 2858.69,319.29 2877.95,318.69 2894.32,318.14 2908.97,317.59 2922.97,316.98 2936.54,316.38 2955.45,315.51 2974.78,314.54 2991.08,313.64 3009.37,312.57 3028.02,311.52 3048.57,310.32 3066.30,309.37 3083.98,308.40 3104.31,307.27 3121.85,306.29 3136.24,305.44 3150.59,304.64 3159.56,304.17 3192.84,302.33 3284.41,297.17 3359.55,292.80 3470.39,286.42 3559.64,281.54 3675.70,275.01 3848.46,265.13 3957.74,258.82 4074.45,252.11 4127.54,249.09 4224.85,243.61 4294.20,239.72 4349.18,236.56 4385.57,234.55" type="shoulder"/>
        <lane id="348.0_1" index="1" speed="13.89" length="3782.25" width="3.66" shape="613.34,277.51 617.90,278.42 628.84,280.61 641.75,283.21 651.15,285.10 653.89,285.65 660.94,287.06 670.29,288.93 678.48,290.57 687.04,292.28 694.64,293.80 703.53,295.56 713.42,297.52 721.28,299.05 729.30,300.65 738.66,302.50 747.01,304.17 755.05,305.77 764.82,307.71 772.94,309.33 784.04,311.58 799.11,314.63 816.59,318.06 836.73,322.01 854.30,325.41 873.27,329.05 892.59,332.73 908.83,335.69 924.90,338.47 942.49,341.25 957.79,343.52 974.01,345.70 990.36,347.69 1007.31,349.62 1022.85,351.23 1035.34,352.39 1047.36,353.45 1058.32,354.34 1070.72,355.31 1082.56,356.15 1092.86,356.78 1101.11,357.24 1108.45,357.62 1118.91,358.12 1130.23,358.56 1138.84,358.86 1147.83,359.12 1158.81,359.38 1170.32,359.59 1183.20,359.72 1197.28,359.70 1209.72,359.59 1222.75,359.36 1233.11,359.16 1244.45,358.94 1256.45,358.68 1272.17,358.37 1288.18,358.07 1301.91,357.80 1315.44,357.56 1327.59,357.31 1341.20,357.05 1354.36,356.76 1367.63,356.46 1379.46,356.20 1392.91,355.89 1414.41,355.39 1427.54,355.08 1447.93,354.61 1465.32,354.21 1479.19,353.88 1493.57,353.55 1515.44,353.01 1532.68,352.70 1551.76,352.26 1568.77,351.88 1585.81,351.52 1604.82,351.07 1622.19,350.70 1645.24,350.20 1664.11,349.77 1682.26,349.38 1697.83,349.02 1715.63,348.61 1732.43,348.23 1745.01,347.93 1759.48,347.60 1772.92,347.31 1786.11,346.99 1796.75,346.76 1807.93,346.50 1819.25,346.27 1830.50,346.06 1845.19,345.76 1858.25,345.46 1872.78,345.14 1882.30,344.92 1892.69,344.67 1905.01,344.42 1913.58,344.23 1926.80,343.95 1938.20,343.70 1950.88,343.40 1961.60,343.16 1972.63,342.92 1984.93,342.62 1996.81,342.35 2006.87,342.14 2018.41,341.87 2034.70,341.50 2051.01,341.12 2069.94,340.66 2089.51,340.23 2101.99,339.96 2124.05,339.46 2141.89,339.05 2159.20,338.71 2177.93,338.28 2194.80,337.92 2212.66,337.54 2229.63,337.20 2247.96,336.78 2266.85,336.34 2281.06,336.01 2296.42,335.65 2311.01,335.34 2322.45,335.10 2337.16,334.81 2348.00,334.57 2365.18,334.18 2375.29,333.96 2391.72,333.59 2406.51,333.27 2421.31,332.94 2436.16,332.60 2462.02,332.04 2477.41,331.70 2498.91,331.22 2516.95,330.82 2536.75,330.36 2545.29,330.15 2559.93,329.79 2576.87,329.41 2591.10,329.08 2609.02,328.67 2626.18,328.30 2641.27,327.93 2653.24,327.69 2671.24,327.27 2687.18,326.91 2711.09,326.34 2730.44,325.90 2751.84,325.42 2773.66,324.96 2793.91,324.50 2814.20,324.06 2836.83,323.51 2858.80,322.94 2878.07,322.34 2894.45,321.80 2909.12,321.25 2923.13,320.64 2936.71,320.04 2955.63,319.17 2974.97,318.20 2991.29,317.29 3009.58,316.22 3028.23,315.17 3048.78,313.97 3066.50,313.02 3084.18,312.05 3104.52,310.92 3122.06,309.94 3136.45,309.09 3150.78,308.29 3159.76,307.82 3193.05,305.98 3284.62,300.82 3359.76,296.45 3470.60,290.07 3559.84,285.19 3675.90,278.66 3848.67,268.78 3957.95,262.47 4074.66,255.76 4127.74,252.74 4225.06,247.26 4294.40,243.37 4349.38,240.21 4385.77,238.21"/>
        <lane id="348.0_2" index="2" speed="13.89" length="3782.25" width="3.66" shape="612.62,281.10 617.18,282.01 628.12,284.20 641.02,286.80 650.43,288.69 653.17,289.24 660.22,290.65 669.57,292.52 677.76,294.16 686.32,295.87 693.93,297.39 702.82,299.15 712.72,301.11 720.57,302.64 728.59,304.24 737.95,306.09 746.29,307.76 754.34,309.36 764.10,311.30 772.21,312.92 783.32,315.17 798.39,318.22 815.89,321.66 836.03,325.61 853.61,329.01 872.59,332.64 891.92,336.33 908.19,339.29 924.30,342.08 941.94,344.86 957.28,347.14 973.55,349.33 989.93,351.32 1006.91,353.26 1022.49,354.87 1035.01,356.04 1047.05,357.10 1058.03,357.99 1070.45,358.96 1082.31,359.81 1092.65,360.44 1100.91,360.89 1108.27,361.27 1118.75,361.77 1130.09,362.21 1138.72,362.52 1147.73,362.78 1158.73,363.04 1170.27,363.25 1183.18,363.38 1197.29,363.36 1209.77,363.25 1222.82,363.02 1233.18,362.82 1244.53,362.60 1256.53,362.34 1272.24,362.03 1288.25,361.73 1301.98,361.46 1315.51,361.22 1327.67,360.97 1341.28,360.71 1354.44,360.42 1367.71,360.12 1379.54,359.86 1392.99,359.55 1414.50,359.05 1427.62,358.74 1448.01,358.27 1465.40,357.87 1479.27,357.54 1493.66,357.21 1515.51,356.67 1532.76,356.36 1551.84,355.92 1568.85,355.54 1585.89,355.18 1604.90,354.73 1622.26,354.36 1645.32,353.86 1664.19,353.43 1682.34,353.04 1697.91,352.68 1715.71,352.27 1732.51,351.89 1745.09,351.59 1759.56,351.26 1773.00,350.97 1786.19,350.65 1796.83,350.42 1808.01,350.16 1819.32,349.93 1830.57,349.72 1845.27,349.42 1858.33,349.12 1872.86,348.80 1882.39,348.58 1892.77,348.33 1905.08,348.08 1913.66,347.89 1926.87,347.61 1938.28,347.36 1950.96,347.06 1961.68,346.82 1972.71,346.58 1985.02,346.28 1996.89,346.01 2006.95,345.80 2018.49,345.53 2034.78,345.16 2051.10,344.78 2070.02,344.32 2089.59,343.89 2102.07,343.62 2124.13,343.12 2141.96,342.71 2159.27,342.37 2178.01,341.94 2194.87,341.58 2212.74,341.20 2229.70,340.86 2248.04,340.44 2266.93,340.00 2281.14,339.67 2296.50,339.31 2311.08,339.00 2322.53,338.76 2337.24,338.47 2348.08,338.23 2365.26,337.84 2375.37,337.62 2391.80,337.25 2406.59,336.93 2421.39,336.60 2436.24,336.26 2462.10,335.70 2477.49,335.36 2498.99,334.88 2517.03,334.48 2536.84,334.02 2545.38,333.81 2560.02,333.45 2576.95,333.07 2591.18,332.74 2609.10,332.33 2626.26,331.96 2641.35,331.59 2653.32,331.35 2671.32,330.93 2687.26,330.57 2711.17,330.00 2730.52,329.56 2751.92,329.08 2773.74,328.62 2793.99,328.16 2814.28,327.72 2836.92,327.17 2858.90,326.60 2878.18,326.00 2894.58,325.45 2909.27,324.90 2923.29,324.29 2936.87,323.69 2955.81,322.82 2975.17,321.85 2991.50,320.95 3009.79,319.88 3028.44,318.83 3048.98,317.62 3066.69,316.67 3084.38,315.70 3104.72,314.57 3122.27,313.60 3136.66,312.75 3150.98,311.94 3159.96,311.47 3193.25,309.63 3284.83,304.48 3359.97,300.11 3470.80,293.72 3560.04,288.84 3676.11,282.31 3848.88,272.44 3958.16,266.13 4074.87,259.42 4127.95,256.39 4225.26,250.91 4294.61,247.02 4349.59,243.86 4385.97,241.86"/>
    </edge>
    <edge id="349.0" from="node_349_start" to="node_346_start" priority="-1" type="town" shape="0.00,160.65 5.05,161.63 14.75,163.56 24.84,165.62 35.56,167.76 45.63,169.75 54.79,171.54 63.40,173.25 75.38,175.61 86.31,177.76 94.30,179.37 103.15,181.12 112.90,183.06 122.80,185.03 132.54,187.00 140.62,188.60 148.37,190.16 154.09,191.32 162.95,193.11 170.91,194.71 184.56,197.46 195.49,199.63 210.50,202.65 224.69,205.50 238.39,208.23 252.06,210.96 265.04,213.57 277.89,216.14 288.57,218.27 302.26,221.02 314.69,223.50 328.99,226.35 346.50,229.86 354.76,231.51">
        <lane id="349.0_0" index="0" disallow="all" speed="13.89" length="360.30" width="3.66" shape="1.75,151.67 6.82,152.66 16.56,154.59 26.65,156.65 37.35,158.79 47.40,160.77 56.56,162.56 65.18,164.28 77.15,166.63 88.10,168.79 96.09,170.40 104.93,172.15 114.69,174.09 124.60,176.06 134.34,178.03 142.41,179.63 150.18,181.19 155.91,182.35 164.76,184.14 172.72,185.74 186.36,188.49 197.29,190.66 212.31,193.68 226.49,196.53 240.18,199.26 253.86,201.99 266.84,204.60 279.69,207.17 290.37,209.30 304.06,212.05 316.48,214.53 330.79,217.38 348.30,220.89 355.09,222.25" type="shoulder"/>
        <lane id="349.0_1" index="1" speed="13.89" length="360.30" width="3.66" shape="1.05,155.26 6.12,156.25 15.84,158.18 25.93,160.24 36.63,162.38 46.69,164.37 55.85,166.16 64.47,167.87 76.44,170.23 87.38,172.38 95.38,173.99 104.22,175.74 113.97,177.68 123.88,179.65 133.62,181.62 141.70,183.22 149.46,184.78 155.18,185.94 164.04,187.73 172.00,189.33 185.64,192.08 196.57,194.25 211.59,197.27 225.77,200.12 239.47,202.85 253.14,205.58 266.12,208.19 278.97,210.76 289.65,212.89 303.34,215.64 315.77,218.12 330.07,220.97 347.58,224.48 354.37,225.83"/>
        <lane id="349.0_2" index="2" speed="13.89" length="360.30" width="3.66" shape="0.35,158.85 5.41,159.84 15.11,161.77 25.21,163.83 35.92,165.97 45.99,167.96 55.15,169.75 63.76,171.46 75.74,173.82 86.67,175.97 94.66,177.58 103.51,179.33 113.26,181.27 123.16,183.24 132.90,185.21 140.98,186.81 148.74,188.37 154.46,189.53 163.31,191.32 171.27,192.92 184.92,195.67 195.85,197.84 210.86,200.86 225.05,203.71 238.75,206.44 252.42,209.17 265.40,211.78 278.25,214.35 288.93,216.48 302.62,219.23 315.05,221.71 329.35,224.56 346.86,228.07 353.65,229.42"/>
    </edge>
    <edge id="352.0" from="node_352_start" to="j_merge_start_24" priority="-1" type="town" shape="297.56,190.94 311.44,196.93 324.29,202.20 338.09,207.67 351.30,212.73 360.30,216.14 372.68,220.61 384.77,224.87 397.96,229.43 410.22,233.53 419.75,236.60 423.91,237.85">
        <lane id="352.0_0" index="0" speed="13.89" length="133.29" width="3.66" shape="298.29,189.26 312.15,195.25 324.98,200.50 338.76,205.97 351.96,211.02 360.94,214.43 373.30,218.89 385.38,223.14 398.55,227.70 410.79,231.79 420.30,234.86 423.15,235.71"/>
    </edge>
    <edge id="362.0" from="node_362_start" to="node_362_end" priority="-1" type="town">
        <lane id="362.0_0" index="0" disallow="all" speed="13.89" length="64.70" width="3.66" shape="5789.88,154.79 5854.48,151.16" type="shoulder"/>
        <lane id="362.0_1" index="1" speed="13.89" length="64.70" width="3.66" shape="5790.09,158.44 5854.68,154.82"/>
        <lane id="362.0_2" index="2" speed="13.89" length="64.70" width="3.66" shape="5790.29,162.09 5854.89,158.47"/>
    </edge>
    <edge id="363.0" from="junction_81" to="node_363_end" priority="-1" type="town" shape="7846.42,47.42 7881.57,45.42 7928.76,42.61">
        <lane id="363.0_0" index="0" speed="13.89" length="77.86" width="3.66" shape="7849.23,41.76 7881.25,39.94 7926.95,37.22"/>
        <lane id="363.0_1" index="1" speed="13.89" length="77.86" width="3.66" shape="7849.44,45.42 7881.47,43.60 7927.16,40.87"/>
    </edge>
    <edge id="364.0" from="node_363_end" to="node_364_end" priority="-1" type="town" shape="7928.76,42.61 7960.02,40.87 8044.02,36.14 8110.24,32.31 8177.79,28.49 8211.91,26.61 8283.04,22.65 8342.47,19.36 8367.62,18.01">
        <lane id="364.0_0" index="0" disallow="all" speed="13.89" length="438.07" width="3.66" shape="7929.74,33.39 7959.51,31.74 8043.50,27.01 8109.72,23.18 8177.28,19.36 8211.41,17.48 8282.54,13.52 8341.97,10.23 8367.13,8.88" type="shoulder"/>
        <lane id="364.0_1" index="1" speed="13.89" length="438.07" width="3.66" shape="7929.95,37.05 7959.72,35.39 8043.71,30.66 8109.93,26.83 8177.49,23.01 8211.61,21.13 8282.74,17.17 8342.17,13.88 8367.33,12.53"/>
        <lane id="364.0_2" index="2" speed="13.89" length="438.07" width="3.66" shape="7930.15,40.70 7959.92,39.04 8043.92,34.32 8110.14,30.49 8177.69,26.66 8211.81,24.78 8282.94,20.82 8342.37,17.53 8367.53,16.18"/>
    </edge>
    <edge id="365.0" from="node_365_start" to="node_365_end" priority="-1" type="town" shape="4493.52,237.62 4534.03,235.37 4616.61,230.59 4719.79,224.70 4832.31,218.25 4943.07,212.01 5059.56,205.30 5357.30,188.53 5477.79,181.64 5498.46,180.51 5601.02,174.76 5696.27,169.28 5714.41,168.24 5737.37,166.94">
        <lane id="365.0_0" index="0" disallow="all" speed="13.89" length="1245.55" width="3.66" shape="4493.17,228.48 4533.52,226.24 4616.09,221.46 4719.27,215.57 4831.79,209.12 4942.55,202.88 5059.04,196.17 5356.78,179.40 5477.27,172.51 5497.96,171.38 5600.50,165.63 5695.75,160.15 5713.89,159.11 5736.70,157.82" type="shoulder"/>
        <lane id="365.0_1" index="1" speed="13.89" length="1245.55" width="3.66" shape="4493.37,232.13 4533.72,229.89 4616.30,225.11 4719.48,219.22 4832.00,212.77 4942.76,206.53 5059.25,199.82 5356.99,183.05 5477.48,176.16 5498.16,175.03 5600.71,169.28 5695.96,163.80 5714.10,162.76 5736.91,161.47"/>
        <lane id="365.0_2" index="2" speed="13.89" length="1245.55" width="3.66" shape="4493.57,235.79 4533.93,233.54 4616.51,228.77 4719.69,222.88 4832.21,216.42 4942.97,210.18 5059.46,203.47 5357.20,186.70 5477.69,179.81 5498.36,178.68 5600.92,172.93 5696.17,167.46 5714.31,166.41 5737.12,165.12"/>
    </edge>
    <edge id="366.0" from="node_348_end" to="node_366_end" priority="-1" type="town">
        <lane id="366.0_0" index="0" disallow="all" speed="13.89" length="52.16" width="3.66" shape="4385.86,234.54 4437.94,231.62" type="shoulder"/>
        <lane id="366.0_1" index="1" speed="13.89" length="52.16" width="3.66" shape="4386.07,238.19 4438.14,235.28"/>
        <lane id="366.0_2" index="2" speed="13.89" length="52.16" width="3.66" shape="4386.27,241.85 4438.35,238.93"/>
    </edge>
    <edge id="367.0" from="node_365_end" to="node_362_start" priority="-1" type="town" shape="5737.37,166.94 5757.03,165.79 5790.39,163.92">
        <lane id="367.0_0" index="0" disallow="all" speed="13.89" length="52.97" width="3.66" shape="5736.99,157.80 5756.51,156.66 5789.88,154.79" type="shoulder"/>
        <lane id="367.0_1" index="1" speed="13.89" length="52.97" width="3.66" shape="5737.21,161.45 5756.72,160.31 5790.09,158.44"/>
        <lane id="367.0_2" index="2" speed="13.89" length="52.97" width="3.66" shape="5737.42,165.11 5756.93,163.96 5790.29,162.09"/>
    </edge>
    <edge id="370.0" from="node_362_end" to="junction_81" priority="-1" type="town" shape="5855.14,160.29 5953.43,154.71 6092.14,146.74 6214.20,139.85 6361.56,131.59 6563.90,120.12 6644.81,115.64 6746.69,109.81 6848.17,104.10 6997.61,95.65 7257.80,80.95 7322.69,77.32 7539.91,64.84 7624.94,59.97 7744.57,53.21 7775.94,51.41">
        <lane id="370.0_0" index="0" disallow="all" speed="13.89" length="1923.73" width="3.66" shape="5854.78,151.15 5952.91,145.58 6091.62,137.61 6213.69,130.72 6361.05,122.46 6563.39,110.99 6644.30,106.51 6746.17,100.68 6847.66,94.97 6997.10,86.52 7257.29,71.82 7322.18,68.19 7539.39,55.71 7624.42,50.84 7744.06,44.08 7775.42,42.28" type="shoulder"/>
        <lane id="370.0_1" index="1" speed="13.89" length="1923.73" width="3.66" shape="5854.98,154.80 5953.12,149.23 6091.83,141.26 6213.89,134.37 6361.25,126.11 6563.60,114.64 6644.50,110.16 6746.38,104.33 6847.86,98.62 6997.30,90.17 7257.49,75.47 7322.38,71.84 7539.60,59.36 7624.63,54.49 7744.26,47.73 7775.63,45.93"/>
        <lane id="370.0_2" index="2" speed="13.89" length="1923.73" width="3.66" shape="5855.19,158.46 5953.33,152.89 6092.04,144.91 6214.10,138.02 6361.46,129.76 6563.80,118.29 6644.71,113.81 6746.59,107.98 6848.07,102.27 6997.51,93.82 7257.70,79.12 7322.59,75.49 7539.81,63.02 7624.84,58.14 7744.47,51.38 7775.84,49.59"/>
    </edge>
    <edge id="372.0" from="node_366_end" to="node_365_start" priority="-1" type="town" shape="4438.60,240.75 4475.76,238.61 4493.52,237.62">
        <lane id="372.0_0" index="0" disallow="all" speed="13.89" length="54.72" width="3.66" shape="4438.23,231.61 4475.24,229.48 4492.86,228.49" type="shoulder"/>
        <lane id="372.0_1" index="1" speed="13.89" length="54.72" width="3.66" shape="4438.44,235.26 4475.45,233.13 4493.07,232.15"/>
        <lane id="372.0_2" index="2" speed="13.89" length="54.72" width="3.66" shape="4438.65,238.92 4475.66,236.78 4493.27,235.80"/>
    </edge>
    <edge id="379.0" from="node_379_start" to="node_379_end" priority="-1" type="town" shape="7927.61,27.68 7955.45,23.31 8005.13,15.60 8046.53,9.64 8083.25,4.38 8113.86,0.00">
        <lane id="379.0_0" index="0" speed="13.89" length="188.18" width="3.66" shape="7927.48,25.85 7955.17,21.50 8004.86,13.79 8046.27,7.83 8082.99,2.57 8113.61,-1.81"/>
    </edge>
    <edge id="380.0" from="junction_81" to="node_379_start" priority="-1" type="town" shape="7846.09,40.02 7871.17,36.33 7927.61,27.68">
        <lane id="380.0_0" index="0" speed="13.89" length="79.26" width="3.66" shape="7848.82,37.77 7870.90,34.52 7927.18,25.90"/>
    </edge>
    <edge id="merge_zone_24" from="j_merge_start_24" to="j_merge_end_24" name="Merge zone 24" priority="-1" type="highway_merge" shape="475.46,255.63 488.13,258.15 502.05,260.94 515.80,263.67 528.97,266.30 544.04,269.26 558.43,272.13 569.47,274.32">
        <lane id="merge_zone_24_0" index="0" speed="13.89" length="95.85" width="3.66" shape="477.25,246.66 489.93,249.18 503.84,251.97 517.59,254.70 530.75,257.33 545.82,260.29 560.22,263.16 571.25,265.35"/>
        <lane id="merge_zone_24_1" index="1" speed="13.89" length="95.85" width="3.66" shape="476.53,250.25 489.21,252.77 503.13,255.56 516.88,258.29 530.04,260.92 545.11,263.88 559.50,266.75 570.54,268.94"/>
        <lane id="merge_zone_24_2" index="2" speed="13.89" length="95.85" width="3.66" shape="475.82,253.84 488.49,256.36 502.41,259.15 516.16,261.88 529.33,264.51 544.40,267.47 558.79,270.34 569.83,272.53"/>
    </edge>

    <junction id="j_merge_end_24" type="priority" x="612.27" y="282.89" incLanes="merge_zone_24_0 merge_zone_24_1 merge_zone_24_2" intLanes=":j_merge_end_24_0_0 :j_merge_end_24_0_1 :j_merge_end_24_0_2" shape="612.26,282.89 613.70,275.71 571.61,263.55 569.47,274.32">
        <request index="0" response="110" foes="110" cont="0"/>
        <request index="1" response="000" foes="001" cont="0"/>
        <request index="2" response="000" foes="001" cont="0"/>
    </junction>
    <junction id="j_merge_start_24" type="priority" x="422.66" y="245.08" incLanes="352.0_0 346.0_0 346.0_1" intLanes=":j_merge_start_24_0_0 :j_merge_start_24_1_0 :j_merge_start_24_1_1" shape="475.46,255.63 477.61,244.86 466.76,242.86 458.05,241.47 450.43,240.28 442.85,238.90 434.29,236.93 423.68,233.96 422.63,237.47 422.59,237.61 421.18,244.79">
        <request index="0" response="000" foes="000" cont="0"/>
        <request index="1" response="000" foes="000" cont="0"/>
        <request index="2" response="000" foes="000" cont="0"/>
    </junction>