<?xml version='1.0' encoding='utf-8'?>
<connections>
    <connection from="399.0" to="403.0" fromLane="1" toLane="1" />
    <connection from="399.0" to="403.0" fromLane="2" toLane="2" />
    <connection from="395.0" to="404.0" fromLane="1" toLane="0" />
    <connection from="395.0" to="398.0" fromLane="1" toLane="0" />
    <connection from="395.0" to="398.0" fromLane="2" toLane="1" />
</connections>