<?xml version="1.0" encoding="UTF-8"?>

<!-- generated on 2025-10-19 17:33:42 by Eclipse SUMO netconvert Version 1.23.1
<netconvertConfiguration xmlns:xsi="http://www.w3.org/2001/XMLSchema-instance" xsi:noNamespaceSchemaLocation="http://sumo.dlr.de/xsd/netconvertConfiguration.xsd">

    <input>
        <node-files value="/home/sdai/harry/TeraSim/jupiter/wb/jupiter_wb_tiles/tile_0062/tile_0062.nod.xml"/>
        <edge-files value="/home/sdai/harry/TeraSim/jupiter/wb/jupiter_wb_tiles/tile_0062/tile_0062.edg.xml"/>
        <connection-files value="/home/sdai/harry/TeraSim/jupiter/wb/jupiter_wb_tiles/tile_0062/tile_0062.con.xml"/>
    </input>

    <output>
        <output-file value="/home/sdai/harry/TeraSim/jupiter/wb/jupiter_wb_tiles/tile_0062/tile_0062.net.xml"/>
        <output.street-names value="true"/>
        <output.original-names value="true"/>
    </output>

    <processing>
        <geometry.remove value="false"/>
        <geometry.min-dist value="0.5"/>
        <edges.join value="false"/>
    </processing>

    <junctions>
        <no-internal-links value="false"/>
        <no-turnarounds value="true"/>
        <junctions.join value="true"/>
        <junctions.join-dist value="10"/>
        <junctions.corner-detail value="5"/>
        <junctions.internal-link-detail value="5"/>
        <junctions.limit-turn-speed value="5.5"/>
        <rectangular-lane-cut value="true"/>
        <check-lane-foes.all value="true"/>
    </junctions>

</netconvertConfiguration>
-->

<net version="1.20" junctionCornerDetail="5" junctionLinkDetail="5" rectangularLaneCut="true" limitTurnSpeed="5.50" checkLaneFoesAll="1" xmlns:xsi="http://www.w3.org/2001/XMLSchema-instance" xsi:noNamespaceSchemaLocation="http://sumo.dlr.de/xsd/net_file.xsd">

    <location netOffset="-636725.60,-3280900.17" convBoundary="0.00,0.00,15926.00,991.23" origBoundary="0.00,0.00,652651.60,3281891.40" projParameter="!"/>

    <edge id=":junction_31_0" function="internal">
        <lane id=":junction_31_0_0" index="0" speed="13.89" length="27.88" width="3.66" shape="7739.69,112.20 7735.19,111.81 7729.12,111.26 7721.38,110.89 7711.86,111.05"/>
    </edge>
    <edge id=":junction_31_1" function="internal">
        <lane id=":junction_31_1_0" index="0" speed="13.89" length="27.53" width="3.66" shape="7739.17,105.90 7711.67,107.39"/>
        <lane id=":junction_31_1_1" index="1" speed="13.89" length="27.53" width="3.66" shape="7738.97,102.25 7711.49,103.74"/>
    </edge>
    <edge id=":junction_94_0" function="internal">
        <lane id=":junction_94_0_0" index="0" speed="13.89" length="105.01" width="3.66" shape="8485.42,63.28 8463.47,65.10 8429.40,68.33 8397.21,71.56 8380.91,73.41"/>
    </edge>
    <edge id=":junction_94_1" function="internal">
        <lane id=":junction_94_1_0" index="0" speed="13.89" length="105.17" width="3.66" shape="8485.42,63.28 8380.41,69.27"/>
        <lane id=":junction_94_1_1" index="1" speed="13.89" length="105.17" width="3.66" shape="8485.21,59.63 8380.21,65.61"/>
    </edge>
    <edge id=":node_398_end_0" function="internal">
        <lane id=":node_398_end_0_0" index="0" speed="13.89" length="3.00" width="3.66" shape="8366.46,70.03 8363.48,70.20"/>
        <lane id=":node_398_end_0_1" index="1" speed="13.89" length="3.00" width="3.66" shape="8366.26,66.38 8363.26,66.55"/>
    </edge>
    <edge id=":node_400_start_0" function="internal">
        <lane id=":node_400_start_0_0" index="0" speed="13.89" length="8.05" width="3.66" shape="7536.48,117.20 7528.44,117.57"/>
    </edge>
    <edge id=":node_400_start_1" function="internal">
        <lane id=":node_400_start_1_0" index="0" speed="13.89" length="7.99" width="3.66" shape="7536.41,117.10 7528.44,117.57"/>
        <lane id=":node_400_start_1_1" index="1" speed="13.89" length="7.99" width="3.66" shape="7536.21,113.45 7528.22,113.92"/>
    </edge>
    <edge id=":node_401_start_0" function="internal">
        <lane id=":node_401_start_0_0" index="0" speed="13.89" length="3.32" width="3.66" shape="7636.75,115.14 7633.43,115.04"/>
    </edge>
    <edge id=":node_401_start_1" function="internal">
        <lane id=":node_401_start_1_0" index="0" speed="13.89" length="2.99" width="3.66" shape="7636.54,111.49 7633.55,111.65"/>
        <lane id=":node_401_start_1_1" index="1" speed="13.89" length="2.99" width="3.66" shape="7636.33,107.83 7633.35,108.00"/>
    </edge>
    <edge id=":node_404_end_0" function="internal">
        <lane id=":node_404_end_0_0" index="0" speed="13.89" length="0.30" width="3.66" shape="8365.89,76.40 8365.60,76.46"/>
    </edge>

    <edge id="395.0" from="node_395_start" to="junction_94" priority="-1" type="town" shape="15926.00,991.23 15916.89,990.00 15905.78,988.50 15897.34,987.38 15890.36,986.42 15882.60,985.40 15875.24,984.41 15868.36,983.49 15860.32,982.45 15852.44,981.40 15844.90,980.38 15837.92,979.40 15829.67,978.31 15821.92,977.22 15813.83,976.12 15806.47,975.09 15797.63,973.91 15789.30,972.77 15781.18,971.67 15771.99,970.46 15763.89,969.36 15756.31,968.34 15750.66,967.55 15743.72,966.62 15737.10,965.71 15728.92,964.61 15722.45,963.72 15715.31,962.78 15707.45,961.69 15698.71,960.51 15691.62,959.55 15683.03,958.39 15674.30,957.23 15665.19,956.00 15657.34,954.91 15648.99,953.79 15640.90,952.69 15632.10,951.51 15624.61,950.51 15617.48,949.57 15607.97,948.28 15598.72,947.04 15589.82,945.84 15579.72,944.47 15569.44,943.11 15561.98,942.09 15553.89,941.01 15545.64,939.92 15535.72,938.60 15523.54,936.95 15513.15,935.55 15501.31,933.97 15489.61,932.38 15479.23,930.98 15469.52,929.67 15456.81,927.93 15444.81,926.29 15430.68,924.35 15420.35,922.94 15410.03,921.53 15396.68,919.70 15386.48,918.31 15376.01,916.88 15365.64,915.46 15353.95,913.89 15342.95,912.39 15328.45,910.43 15314.97,908.60 15303.24,907.00 15290.69,905.31 15278.89,903.71 15266.79,902.07 15257.81,900.84 15245.11,899.12 15235.62,897.84 15226.29,896.57 15214.16,894.93 15203.89,893.51 15193.60,892.12 15186.02,891.11 15175.04,889.61 15167.14,888.54 15155.71,886.99 15144.15,885.42 15127.71,883.20 15104.33,880.02 15095.17,878.78 15079.02,876.62 15063.26,874.46 15047.99,872.41 15035.77,870.76 15021.39,868.84 15001.80,866.18 14979.66,863.17 14964.45,861.12 14951.47,859.38 14933.53,856.98 14920.10,855.15 14903.03,852.86 14887.70,850.77 14877.20,849.33 14862.41,847.34 14847.81,845.33 14835.90,843.73 14828.56,842.74 14815.15,840.94 14805.86,839.69 14793.82,838.06 14781.91,836.46 14768.65,834.67 14756.07,832.99 14746.37,831.70 14736.99,830.46 14724.80,828.81 14710.31,826.86 14692.92,824.50 14678.06,822.49 14666.14,820.87 14656.47,819.55 14641.84,817.61 14630.07,816.02 14620.03,814.67 14609.95,813.30 14599.85,811.90 14588.98,810.42 14581.22,809.33 14569.77,807.80 14561.67,806.67 14554.81,805.73 14546.18,804.59 14537.91,803.48 14527.17,802.03 14515.66,800.48 14503.67,798.85 14489.23,796.90 14466.48,793.84 14445.83,791.09 14432.28,789.24 14413.61,786.74 14402.46,785.18 14383.42,782.67 14371.75,781.09 14356.81,779.08 14343.47,777.27 14329.93,775.43 14316.71,773.66 14304.42,771.99 14289.85,770.02 14273.49,767.83 14255.22,765.35 14246.44,764.16 14237.67,762.99 14218.77,760.42 14200.51,757.95 14182.09,755.45 14165.31,753.17 14150.90,751.24 14139.35,749.68 14129.62,748.36 14113.13,746.13 14098.44,744.16 14083.82,742.19 14071.10,740.49 14061.60,739.22 14048.36,737.41 14033.34,735.38 14022.78,733.95 14008.32,731.97 13995.22,730.20 13982.17,728.43 13970.92,726.91 13956.34,724.94 13942.87,723.11 13929.23,721.28 13914.30,719.24 13903.68,717.80 13891.87,716.17 13882.13,714.87 13872.46,713.56 13860.02,711.87 13849.41,710.42 13839.23,709.02 13827.73,707.45 13812.74,705.39 13799.79,703.62 13787.48,701.95 13775.98,700.40 13762.66,698.62 13751.57,697.11 13738.91,695.38 13725.77,693.61 13715.62,692.23 13706.14,690.96 13686.97,688.39 13670.96,686.25 13652.85,683.80 13625.42,680.13 13602.83,677.06 13583.23,674.44 13564.56,671.94 13545.68,669.42 13526.27,666.83 13507.84,664.36 13493.07,662.38 13479.04,660.51 13458.14,657.71 13442.46,655.58 13426.21,653.37 13412.01,651.42 13395.79,649.19 13381.48,647.19 13362.71,644.51 13346.54,642.20 13333.96,640.37 13319.62,638.31 13304.70,636.14 13290.69,634.09 13277.36,632.08 13263.05,629.85 13252.60,628.22 13241.40,626.44 13230.68,624.72 13219.99,622.97 13207.92,621.00 13195.80,618.98 13179.31,616.20 13163.72,613.55 13146.93,610.70 13130.73,607.88 13117.75,605.59 13103.22,603.02 13091.40,600.93 13077.06,598.38 13060.92,595.55 13041.98,592.17 13024.63,589.05 13010.04,586.44 12992.37,583.33 12975.50,580.34 12961.35,577.83 12946.25,575.14 12934.36,573.03 12921.31,570.67 12906.14,567.97 12889.65,565.02 12874.13,562.24 12858.73,559.51 12843.67,556.85 12832.16,554.80 12822.16,553.05 12810.20,550.94 12800.20,549.17 12788.64,547.13 12777.02,545.08 12766.97,543.30 12755.12,541.21 12742.44,538.98 12729.62,536.70 12714.50,533.99 12698.60,531.18 12683.34,528.45 12666.59,525.51 12652.73,523.02 12639.61,520.67 12626.02,518.27 12612.66,515.89 12601.89,513.97 12587.63,511.43 12573.02,508.83 12556.80,505.92 12540.75,503.06 12526.05,500.41 12510.67,497.69 12495.59,494.98 12480.11,492.21 12468.04,490.04 12454.62,487.66 12443.51,485.68 12429.14,483.11 12414.80,480.57 12400.27,478.02 12383.50,475.01 12366.91,472.10 12352.31,469.51 12336.11,466.66 12320.18,463.80 12303.35,460.79 12290.75,458.58 12277.94,456.31 12262.97,453.67 12248.38,451.05 12235.45,448.74 12222.28,446.42 12207.07,443.73 12193.76,441.33 12174.58,437.93 12156.88,434.78 12138.92,431.58 12125.94,429.30 12109.24,426.32 12093.47,423.54 12080.65,421.27 12064.40,418.39 12052.35,416.24 12039.11,413.92 12022.54,410.97 12007.27,408.27 11993.49,405.85 11980.10,403.46 11966.65,401.11 11953.84,398.86 11935.88,395.70 11916.40,392.28 11895.32,388.55 11876.25,385.16 11859.83,382.23 11845.47,379.66 11828.48,376.63 11815.02,374.25 11801.18,371.76 11788.53,369.49 11774.17,366.92 11757.74,363.99 11742.10,361.18 11724.82,358.09 11705.72,354.73 11687.63,351.54 11669.04,348.27 11650.96,345.08 11633.05,341.93 11611.67,338.14 11591.82,334.63 11571.47,331.00 11551.72,327.48 11532.54,324.06 11513.31,320.63 11495.10,317.38 11480.80,314.83 11462.50,311.59 11443.61,308.26 11426.21,305.17 11410.09,302.29 11391.67,299.06 11367.15,294.72 11349.79,291.62 11328.27,287.77 11310.02,284.52 11291.91,281.32 11266.17,276.76 11243.90,272.81 11222.79,269.05 11197.74,264.59 11180.14,261.44 11160.65,258.02 11140.21,254.36 11122.03,251.11 11110.50,249.05 11091.52,245.70 11077.67,243.24 11065.64,241.12 11053.85,239.03 11041.32,236.81 11027.79,234.37 11013.09,231.74 10998.38,229.14 10985.82,226.91 10973.65,224.77 10962.06,222.71 10951.90,220.90 10939.63,218.71 10928.55,216.74 10916.76,214.63 10904.49,212.43 10894.86,210.70 10883.27,208.65 10869.39,206.16 10855.46,203.67 10839.50,200.82 10824.10,198.05 10806.02,194.86 10790.88,192.15 10775.46,189.39 10761.14,186.85 10747.25,184.39 10733.70,182.00 10718.76,179.36 10702.25,176.42 10686.53,173.63 10671.24,170.91 10656.07,168.21 10641.77,165.65 10625.85,162.82 10612.10,160.37 10598.02,157.86 10580.50,154.76 10556.61,150.51 10537.28,147.12 10519.99,144.07 10499.31,140.42 10483.05,137.55 10467.53,134.80 10447.18,131.19 10421.19,126.58 10398.34,122.51 10379.36,119.14 10355.58,114.88 10334.45,111.09 10315.60,107.72 10297.41,104.46 10280.89,101.54 10259.09,97.67 10238.42,93.98 10222.82,91.20 10198.70,86.92 10166.55,81.23 10148.88,78.11 10116.25,72.38 10093.34,68.32 10063.58,63.00 10042.49,59.24 10019.95,55.22 9996.28,51.03 9970.94,46.57 9940.42,41.15 9913.29,36.31 9890.78,32.31 9856.71,26.37 9826.94,21.44 9801.76,17.64 9784.79,15.27 9770.62,13.44 9760.23,12.18 9746.76,10.63 9730.08,8.84 9712.13,7.09 9695.64,5.65 9686.47,4.94 9679.23,4.43 9674.39,4.05 9662.07,3.24 9648.81,2.50 9638.01,1.97 9624.37,1.43 9607.91,0.78 9597.56,0.51 9584.30,0.24 9571.95,0.08 9559.69,0.00 9548.01,0.01 9535.97,0.09 9523.74,0.26 9509.99,0.61 9494.68,1.11 9481.52,1.59 9468.51,2.21 9452.08,3.04 9436.76,3.89 9422.91,4.69 9406.56,5.61 9391.10,6.47 9368.92,7.73 9353.20,8.68 9338.68,9.51 9327.69,10.18 9313.77,10.94 9302.28,11.62 9283.46,12.64 9267.60,13.56 9252.23,14.37 9236.72,15.27 9223.54,16.02 9209.41,16.89 9194.57,17.71 9182.99,18.35 9170.41,19.04 9156.51,19.88 9144.06,20.58 9125.81,21.58 9108.72,22.49 9096.87,23.19 9083.02,24.00 9063.28,25.10 9047.98,25.94 9026.93,27.10 9012.61,27.94 8991.62,29.10 8971.61,30.28 8952.28,31.41 8925.58,32.91 8899.44,34.39 8885.92,35.16 8863.93,36.46 8839.64,37.78 8812.78,39.26 8787.07,40.73 8762.01,42.16 8735.49,43.65 8709.51,45.10 8693.61,45.98 8671.99,47.29 8651.83,48.44 8634.06,49.41 8613.92,50.53 8588.53,51.95 8560.92,53.52 8530.52,55.21 8507.44,56.49 8485.10,57.80">
        <lane id="395.0_0" index="0" disallow="all" speed="13.89" length="7520.46" width="3.66" shape="15924.78,1000.30 15915.67,999.07 15904.57,997.57 15896.12,996.45 15889.14,995.49 15881.40,994.47 15874.03,993.48 15867.17,992.56 15859.13,991.52 15851.22,990.47 15843.65,989.44 15836.69,988.47 15828.44,987.38 15820.67,986.28 15812.58,985.18 15805.24,984.16 15796.41,982.98 15788.07,981.84 15779.97,980.74 15770.78,979.53 15762.67,978.43 15755.07,977.41 15749.42,976.62 15742.49,975.69 15735.87,974.78 15727.69,973.68 15721.23,972.79 15714.09,971.85 15706.21,970.76 15697.49,969.58 15690.40,968.62 15681.82,967.46 15673.09,966.30 15663.95,965.07 15656.11,963.98 15647.77,962.86 15639.68,961.76 15630.89,960.58 15623.41,959.58 15616.27,958.64 15606.75,957.35 15597.50,956.11 15588.60,954.91 15578.51,953.54 15568.23,952.18 15560.76,951.16 15552.69,950.08 15544.44,948.99 15534.50,947.67 15522.32,946.02 15511.94,944.62 15500.09,943.04 15488.38,941.45 15478.01,940.05 15468.29,938.74 15455.57,937.00 15443.57,935.36 15429.44,933.42 15419.11,932.01 15408.79,930.60 15395.44,928.77 15385.25,927.38 15374.77,925.95 15364.41,924.53 15352.73,922.96 15341.72,921.46 15327.22,919.50 15313.74,917.67 15302.01,916.07 15289.47,914.38 15277.66,912.78 15265.56,911.14 15256.58,909.91 15243.89,908.19 15234.39,906.91 15225.06,905.64 15212.92,904.00 15202.65,902.58 15192.38,901.19 15184.80,900.18 15173.81,898.68 15165.91,897.61 15154.48,896.06 15142.92,894.49 15126.48,892.27 15103.10,889.09 15093.95,887.85 15077.79,885.69 15062.03,883.53 15046.77,881.48 15034.56,879.83 15020.17,877.91 15000.57,875.25 14978.43,872.24 14963.23,870.19 14950.26,868.45 14932.31,866.05 14918.88,864.22 14901.81,861.93 14886.46,859.84 14875.97,858.40 14861.18,856.41 14846.58,854.40 14834.68,852.80 14827.34,851.81 14813.93,850.01 14804.64,848.76 14792.60,847.13 14780.69,845.53 14767.43,843.74 14754.86,842.06 14745.17,840.77 14735.78,839.53 14723.58,837.88 14709.09,835.93 14691.69,833.57 14676.83,831.56 14664.91,829.94 14655.26,828.62 14640.63,826.68 14628.85,825.09 14618.81,823.74 14608.71,822.36 14598.61,820.96 14587.73,819.48 14579.99,818.40 14568.54,816.87 14560.42,815.73 14553.59,814.80 14544.97,813.66 14536.69,812.55 14525.95,811.10 14514.44,809.55 14502.44,807.92 14488.01,805.97 14465.27,802.91 14444.61,800.16 14431.06,798.31 14412.38,795.81 14401.23,794.25 14382.21,791.74 14370.53,790.16 14355.59,788.15 14342.24,786.34 14328.71,784.50 14315.49,782.73 14303.19,781.06 14288.63,779.09 14272.27,776.90 14253.99,774.42 14245.22,773.23 14236.45,772.06 14217.54,769.49 14199.28,767.02 14180.86,764.52 14164.09,762.24 14149.68,760.31 14138.13,758.75 14128.39,757.43 14111.91,755.20 14097.22,753.23 14082.60,751.26 14069.89,749.56 14060.37,748.29 14047.13,746.48 14032.12,744.45 14021.55,743.02 14007.09,741.04 13993.99,739.27 13980.94,737.50 13969.70,735.98 13955.11,734.01 13941.65,732.18 13928.00,730.35 13913.07,728.31 13902.44,726.87 13890.64,725.24 13880.91,723.94 13871.23,722.63 13858.79,720.94 13848.17,719.49 13837.99,718.09 13826.49,716.52 13811.50,714.46 13798.56,712.69 13786.26,711.02 13774.77,709.47 13761.44,707.69 13750.34,706.18 13737.68,704.45 13724.55,702.68 13714.40,701.30 13704.93,700.03 13685.76,697.46 13669.74,695.32 13651.63,692.87 13624.20,689.20 13601.61,686.13 13582.02,683.51 13563.35,681.01 13544.47,678.49 13525.06,675.90 13506.63,673.43 13491.86,671.45 13477.83,669.58 13456.92,666.78 13441.23,664.65 13424.97,662.44 13410.77,660.48 13394.54,658.25 13380.20,656.25 13361.42,653.57 13345.24,651.26 13332.65,649.43 13318.31,647.37 13303.38,645.19 13289.35,643.14 13275.97,641.12 13261.64,638.89 13251.18,637.26 13239.96,635.48 13229.22,633.75 13218.52,632.00 13206.43,630.03 13194.29,628.00 13177.79,625.22 13162.19,622.57 13145.38,619.72 13129.15,616.89 13116.16,614.60 13101.63,612.03 13089.80,609.94 13075.47,607.39 13059.33,604.56 13040.37,601.18 13023.02,598.06 13008.44,595.45 12990.78,592.34 12973.90,589.35 12959.75,586.84 12944.65,584.15 12932.75,582.04 12919.70,579.68 12904.53,576.98 12888.04,574.03 12872.53,571.25 12857.14,568.52 12842.08,565.86 12830.57,563.81 12820.58,562.06 12808.61,559.95 12798.61,558.18 12787.05,556.14 12775.43,554.09 12765.38,552.31 12753.54,550.22 12740.85,547.99 12728.01,545.71 12712.90,543.00 12697.00,540.19 12681.75,537.46 12664.99,534.52 12651.12,532.03 12638.01,529.68 12624.42,527.28 12611.06,524.90 12600.29,522.98 12586.03,520.44 12571.41,517.84 12555.19,514.93 12539.14,512.07 12524.44,509.42 12509.07,506.70 12493.98,503.99 12478.50,501.22 12466.43,499.05 12453.02,496.67 12441.90,494.69 12427.54,492.12 12413.21,489.58 12398.67,487.03 12381.90,484.02 12365.32,481.11 12350.72,478.52 12334.51,475.67 12318.57,472.81 12301.75,469.80 12289.16,467.59 12276.35,465.32 12261.37,462.68 12246.77,460.06 12233.85,457.75 12220.69,455.43 12205.46,452.74 12192.15,450.34 12172.98,446.94 12155.28,443.79 12137.33,440.59 12124.35,438.31 12107.64,435.33 12091.88,432.55 12079.06,430.28 12062.80,427.40 12050.76,425.25 12037.52,422.93 12020.94,419.98 12005.68,417.28 11991.90,414.86 11978.51,412.47 11965.07,410.12 11952.26,407.87 11934.30,404.71 11914.81,401.29 11893.72,397.56 11874.65,394.17 11858.22,391.24 11843.86,388.67 11826.88,385.64 11813.42,383.26 11799.56,380.77 11786.92,378.50 11772.56,375.93 11756.13,373.00 11740.49,370.19 11723.22,367.10 11704.14,363.74 11686.05,360.55 11667.45,357.28 11649.37,354.09 11631.46,350.94 11610.08,347.15 11590.22,343.64 11569.87,340.01 11550.12,336.49 11530.94,333.07 11511.71,329.64 11493.50,326.39 11479.20,323.84 11460.91,320.60 11442.02,317.27 11424.61,314.18 11408.50,311.30 11390.08,308.07 11365.55,303.73 11348.18,300.63 11326.66,296.78 11308.42,293.53 11290.32,290.33 11264.58,285.77 11242.30,281.82 11221.19,278.06 11196.14,273.60 11178.55,270.45 11159.05,267.03 11138.60,263.37 11120.42,260.12 11108.90,258.06 11089.93,254.71 11076.08,252.25 11064.05,250.13 11052.26,248.04 11039.71,245.82 11026.17,243.38 11011.49,240.75 10996.79,238.15 10984.23,235.92 10972.06,233.78 10960.46,231.72 10950.30,229.91 10938.03,227.72 10926.95,225.75 10915.15,223.64 10902.88,221.44 10893.26,219.71 10881.67,217.66 10867.78,215.17 10853.85,212.68 10837.89,209.83 10822.50,207.06 10804.42,203.87 10789.27,201.16 10773.86,198.40 10759.55,195.86 10745.66,193.40 10732.11,191.01 10717.16,188.37 10700.65,185.43 10684.93,182.64 10669.64,179.92 10654.46,177.22 10640.17,174.66 10624.25,171.83 10610.50,169.38 10596.42,166.87 10578.90,163.77 10555.02,159.52 10535.70,156.13 10518.40,153.08 10497.72,149.43 10481.46,146.56 10465.93,143.81 10445.58,140.20 10419.59,135.59 10396.74,131.52 10377.75,128.15 10353.97,123.89 10332.84,120.10 10313.99,116.73 10295.81,113.47 10279.30,110.55 10257.49,106.68 10236.82,102.99 10221.22,100.21 10197.11,95.93 10164.96,90.24 10147.30,87.12 10114.66,81.39 10091.74,77.33 10061.97,72.01 10040.89,68.25 10018.35,64.23 9994.69,60.04 9969.35,55.58 9938.82,50.16 9911.69,45.32 9889.20,41.32 9855.18,35.39 9825.51,30.48 9800.45,26.70 9783.57,24.34 9769.48,22.52 9759.16,21.27 9745.75,19.72 9729.15,17.94 9711.29,16.20 9694.88,14.77 9685.79,14.06 9678.56,13.56 9673.73,13.18 9661.52,12.37 9648.33,11.64 9637.61,11.11 9624.01,10.57 9607.61,9.93 9597.35,9.66 9584.15,9.39 9571.86,9.23 9559.67,9.15 9548.05,9.16 9536.07,9.24 9523.92,9.41 9510.26,9.76 9495.00,10.25 9481.91,10.73 9468.96,11.35 9452.57,12.18 9437.28,13.03 9423.43,13.83 9407.07,14.75 9391.62,15.61 9369.45,16.86 9353.74,17.81 9339.22,18.64 9328.22,19.31 9314.29,20.08 9302.79,20.76 9283.97,21.78 9268.11,22.70 9252.74,23.51 9237.25,24.40 9224.08,25.15 9209.95,26.02 9195.08,26.85 9183.50,27.49 9170.94,28.17 9157.05,29.01 9144.57,29.72 9126.31,30.72 9109.23,31.63 9097.41,32.32 9083.54,33.14 9063.79,34.24 9048.48,35.08 9027.45,36.24 9013.13,37.08 8992.14,38.24 8972.15,39.41 8952.80,40.55 8926.10,42.05 8899.96,43.53 8886.45,44.29 8864.45,45.60 8840.14,46.92 8813.29,48.40 8787.59,49.87 8762.53,51.30 8736.00,52.79 8710.02,54.24 8694.14,55.11 8672.53,56.42 8652.34,57.58 8634.57,58.55 8614.43,59.67 8589.05,61.09 8561.44,62.66 8531.03,64.35 8507.96,65.63 8485.64,66.93" type="shoulder"/>
        <lane id="395.0_1" index="1" speed="13.89" length="7520.46" width="3.66" shape="15925.27,996.67 15916.16,995.44 15905.05,993.94 15896.61,992.82 15889.63,991.86 15881.88,990.84 15874.51,989.85 15867.65,988.93 15859.61,987.89 15851.71,986.84 15844.15,985.82 15837.18,984.84 15828.93,983.75 15821.17,982.66 15813.08,981.56 15805.73,980.53 15796.90,979.35 15788.56,978.21 15780.46,977.11 15771.27,975.90 15763.16,974.80 15755.57,973.78 15749.92,972.99 15742.98,972.06 15736.36,971.15 15728.18,970.05 15721.72,969.16 15714.58,968.22 15706.71,967.13 15697.98,965.95 15690.89,964.99 15682.30,963.83 15673.57,962.67 15664.45,961.44 15656.60,960.35 15648.26,959.23 15640.17,958.13 15631.37,956.95 15623.89,955.95 15616.75,955.01 15607.24,953.72 15597.99,952.48 15589.09,951.28 15578.99,949.91 15568.71,948.55 15561.25,947.53 15553.17,946.45 15544.92,945.36 15534.99,944.04 15522.81,942.39 15512.42,940.99 15500.58,939.41 15488.88,937.82 15478.50,936.42 15468.78,935.11 15456.07,933.37 15444.07,931.73 15429.94,929.79 15419.61,928.38 15409.29,926.97 15395.94,925.14 15385.74,923.75 15375.27,922.32 15364.90,920.90 15353.22,919.33 15342.21,917.83 15327.72,915.87 15314.23,914.04 15302.51,912.44 15289.96,910.75 15278.15,909.15 15266.05,907.51 15257.07,906.28 15244.38,904.56 15234.89,903.28 15225.55,902.01 15213.42,900.37 15203.15,898.95 15192.87,897.56 15185.29,896.55 15174.30,895.05 15166.40,893.98 15154.97,892.43 15143.42,890.86 15126.97,888.64 15103.59,885.46 15094.44,884.22 15078.29,882.06 15062.52,879.90 15047.26,877.85 15035.04,876.20 15020.66,874.28 15001.06,871.62 14978.93,868.61 14963.72,866.56 14950.74,864.82 14932.80,862.42 14919.37,860.59 14902.30,858.30 14886.96,856.21 14876.46,854.77 14861.67,852.78 14847.07,850.77 14835.17,849.17 14827.83,848.18 14814.42,846.38 14805.13,845.13 14793.09,843.50 14781.18,841.90 14767.92,840.11 14755.35,838.43 14745.65,837.14 14736.26,835.90 14724.07,834.25 14709.58,832.30 14692.19,829.94 14677.32,827.93 14665.40,826.31 14655.74,824.99 14641.11,823.05 14629.34,821.46 14619.30,820.11 14609.21,818.74 14599.11,817.34 14588.23,815.86 14580.48,814.77 14569.03,813.24 14560.92,812.11 14554.08,811.17 14545.46,810.03 14537.18,808.92 14526.44,807.47 14514.93,805.92 14502.94,804.29 14488.50,802.34 14465.75,799.28 14445.10,796.53 14431.55,794.68 14412.87,792.18 14401.72,790.62 14382.70,788.11 14371.02,786.53 14356.08,784.52 14342.73,782.71 14329.20,780.87 14315.98,779.10 14303.69,777.43 14289.12,775.46 14272.76,773.27 14254.48,770.79 14245.71,769.60 14236.94,768.43 14218.03,765.86 14199.78,763.39 14181.35,760.89 14164.58,758.61 14150.17,756.68 14138.62,755.12 14128.89,753.80 14112.40,751.57 14097.71,749.60 14083.09,747.63 14070.37,745.93 14060.87,744.66 14047.62,742.85 14032.61,740.82 14022.04,739.39 14007.58,737.41 13994.49,735.64 13981.44,733.87 13970.19,732.35 13955.61,730.38 13942.14,728.55 13928.50,726.72 13913.56,724.68 13902.94,723.24 13891.13,721.61 13881.40,720.31 13871.72,719.00 13859.28,717.31 13848.67,715.86 13838.49,714.46 13826.99,712.89 13812.00,710.83 13799.05,709.06 13786.75,707.39 13775.25,705.84 13761.93,704.06 13750.83,702.55 13738.17,700.82 13725.04,699.05 13714.89,697.67 13705.41,696.40 13686.24,693.83 13670.23,691.69 13652.12,689.24 13624.69,685.57 13602.10,682.50 13582.50,679.88 13563.83,677.38 13544.96,674.86 13525.54,672.27 13507.11,669.80 13492.34,667.82 13478.31,665.95 13457.41,663.15 13441.72,661.02 13425.47,658.81 13411.26,656.86 13395.04,654.63 13380.71,652.63 13361.94,649.94 13345.76,647.63 13333.18,645.80 13318.84,643.74 13303.91,641.57 13289.89,639.52 13276.53,637.51 13262.21,635.27 13251.75,633.64 13240.54,631.86 13229.80,630.14 13219.11,628.39 13207.03,626.42 13194.89,624.39 13178.40,621.61 13162.80,618.96 13146.00,616.11 13129.79,613.29 13116.80,611.00 13102.27,608.43 13090.44,606.34 13076.11,603.79 13059.97,600.96 13041.01,597.57 13023.66,594.45 13009.08,591.85 12991.42,588.74 12974.54,585.75 12960.39,583.24 12945.29,580.55 12933.39,578.43 12920.34,576.07 12905.18,573.37 12888.68,570.42 12873.17,567.64 12857.78,564.92 12842.71,562.26 12831.21,560.21 12821.21,558.46 12809.25,556.35 12799.25,554.58 12787.69,552.54 12776.07,550.49 12766.02,548.71 12754.17,546.62 12741.49,544.39 12728.66,542.10 12713.54,539.40 12697.64,536.59 12682.38,533.86 12665.63,530.92 12651.76,528.42 12638.65,526.08 12625.06,523.68 12611.70,521.29 12600.93,519.37 12586.67,516.84 12572.06,514.23 12555.84,511.32 12539.78,508.46 12525.09,505.81 12509.71,503.09 12494.62,500.38 12479.14,497.61 12467.08,495.44 12453.66,493.07 12442.55,491.08 12428.18,488.52 12413.85,485.98 12399.31,483.43 12382.54,480.42 12365.96,477.51 12351.36,474.92 12335.15,472.07 12319.21,469.20 12302.39,466.20 12289.80,463.99 12276.99,461.72 12262.01,459.08 12247.41,456.45 12234.49,454.15 12221.33,451.83 12206.11,449.13 12192.80,446.73 12173.62,443.34 12155.92,440.18 12137.96,436.99 12124.98,434.71 12108.28,431.73 12092.52,428.95 12079.69,426.68 12063.44,423.80 12051.40,421.65 12038.16,419.33 12021.58,416.38 12006.32,413.68 11992.54,411.26 11979.15,408.87 11965.71,406.52 11952.89,404.27 11934.93,401.11 11915.45,397.69 11894.36,393.96 11875.29,390.56 11858.87,387.63 11844.51,385.06 11827.52,382.04 11814.06,379.65 11800.21,377.16 11787.56,374.89 11773.21,372.32 11756.78,369.39 11741.13,366.58 11723.86,363.50 11704.77,360.14 11686.68,356.95 11668.09,353.68 11650.01,350.49 11632.10,347.34 11610.72,343.55 11590.86,340.04 11570.51,336.40 11550.76,332.88 11531.58,329.46 11512.35,326.03 11494.14,322.78 11479.84,320.24 11461.55,317.00 11442.66,313.67 11425.25,310.57 11409.14,307.70 11390.72,304.47 11366.19,300.13 11348.83,297.02 11327.31,293.17 11309.06,289.93 11290.96,286.73 11265.21,282.17 11242.94,278.22 11221.83,274.45 11196.78,269.99 11179.18,266.85 11159.69,263.43 11139.25,259.76 11121.07,256.51 11109.54,254.46 11090.57,251.11 11076.72,248.65 11064.69,246.53 11052.89,244.44 11040.36,242.21 11026.82,239.77 11012.13,237.15 10997.42,234.55 10984.87,232.32 10972.70,230.18 10961.10,228.12 10950.94,226.30 10938.67,224.11 10927.59,222.14 10915.79,220.03 10903.52,217.83 10893.90,216.10 10882.31,214.05 10868.42,211.56 10854.50,209.07 10838.53,206.22 10823.14,203.46 10805.06,200.27 10789.92,197.55 10774.50,194.79 10760.18,192.26 10746.30,189.80 10732.75,187.41 10717.80,184.77 10701.29,181.83 10685.57,179.04 10670.28,176.32 10655.11,173.61 10640.81,171.05 10624.89,168.23 10611.14,165.77 10597.06,163.27 10579.54,160.17 10555.66,155.92 10536.33,152.53 10519.04,149.48 10498.36,145.83 10482.10,142.96 10466.57,140.21 10446.22,136.60 10420.23,131.99 10397.38,127.92 10378.40,124.54 10354.61,120.28 10333.48,116.49 10314.63,113.12 10296.45,109.86 10279.93,106.95 10258.13,103.08 10237.46,99.38 10221.86,96.61 10197.74,92.33 10165.60,86.64 10147.93,83.52 10115.30,77.79 10092.38,73.72 10062.62,68.40 10041.53,64.64 10018.99,60.63 9995.33,56.44 9969.99,51.98 9939.46,46.56 9912.33,41.71 9889.83,37.72 9855.79,31.78 9826.08,26.86 9800.97,23.07 9784.06,20.71 9769.94,18.89 9759.59,17.63 9746.16,16.09 9729.52,14.30 9711.63,12.56 9695.18,11.12 9686.07,10.41 9678.83,9.91 9674.00,9.53 9661.74,8.72 9648.52,7.98 9637.77,7.45 9624.16,6.92 9607.73,6.27 9597.44,6.00 9584.21,5.73 9571.90,5.57 9559.68,5.49 9548.03,5.50 9536.03,5.58 9523.85,5.75 9510.15,6.10 9494.87,6.60 9481.75,7.08 9468.78,7.69 9452.37,8.52 9437.07,9.37 9423.22,10.17 9406.87,11.09 9391.41,11.95 9369.24,13.21 9353.52,14.16 9339.00,14.99 9328.01,15.66 9314.08,16.42 9302.59,17.10 9283.77,18.12 9267.91,19.04 9252.54,19.85 9237.04,20.75 9223.87,21.50 9209.73,22.37 9194.88,23.19 9183.29,23.83 9170.73,24.52 9156.83,25.36 9144.37,26.06 9126.11,27.06 9109.03,27.97 9097.19,28.67 9083.33,29.48 9063.59,30.58 9048.28,31.42 9027.24,32.58 9012.92,33.42 8991.94,34.58 8971.93,35.76 8952.60,36.89 8925.89,38.39 8899.75,39.87 8886.24,40.64 8864.24,41.94 8839.94,43.26 8813.09,44.74 8787.39,46.21 8762.32,47.64 8735.80,49.13 8709.82,50.58 8693.93,51.46 8672.31,52.77 8652.14,53.92 8634.36,54.89 8614.23,56.01 8588.84,57.43 8561.23,59.00 8530.83,60.69 8507.75,61.97 8485.42,63.28"/>