<?xml version='1.0' encoding='utf-8'?>
<edges>
    <edge id="395.0" from="node_395_start" to="junction_94" numLanes="3" speed="13.89" type="town" shape="652651.60,3281891.40 652642.49,3281890.17 652642.49,3281890.17 652631.38,3281888.67 652631.38,3281888.67 652622.94,3281887.55 652622.94,3281887.55 652615.96,3281886.59 652615.96,3281886.59 652608.20,3281885.57 652608.20,3281885.57 652600.84,3281884.58 652600.84,3281884.58 652593.96,3281883.66 652593.96,3281883.66 652585.92,3281882.62 652585.92,3281882.62 652578.04,3281881.57 652578.04,3281881.57 652570.50,3281880.55 652570.50,3281880.55 652563.52,3281879.57 652563.52,3281879.57 652555.27,3281878.48 652555.27,3281878.48 652547.52,3281877.39 652547.52,3281877.39 652539.43,3281876.29 652539.43,3281876.29 652532.07,3281875.26 652532.07,3281875.26 652523.23,3281874.08 652523.23,3281874.08 652514.90,3281872.94 652514.90,3281872.94 652506.78,3281871.84 652506.78,3281871.84 652497.59,3281870.63 652497.59,3281870.63 652489.49,3281869.53 652489.49,3281869.53 652481.91,3281868.51 652481.91,3281868.51 652476.26,3281867.72 652476.26,3281867.72 652469.32,3281866.79 652469.32,3281866.79 652462.70,3281865.88 652462.70,3281865.88 652454.52,3281864.78 652454.52,3281864.78 652448.05,3281863.89 652448.05,3281863.89 652440.91,3281862.95 652440.91,3281862.95 652433.05,3281861.86 652433.05,3281861.86 652424.31,3281860.68 652424.31,3281860.68 652417.22,3281859.72 652417.22,3281859.72 652408.63,3281858.56 652408.63,3281858.56 652399.90,3281857.40 652399.90,3281857.40 652390.79,3281856.17 652390.79,3281856.17 652382.94,3281855.08 652382.94,3281855.08 652374.59,3281853.96 652374.59,3281853.96 652366.50,3281852.86 652366.50,3281852.86 652357.70,3281851.68 652357.70,3281851.68 652350.21,3281850.68 652350.21,3281850.68 652343.08,3281849.74 652343.08,3281849.74 652333.57,3281848.45 652333.57,3281848.45 652324.32,3281847.21 652324.32,3281847.21 652315.42,3281846.01 652315.42,3281846.01 652305.32,3281844.64 652305.32,3281844.64 652295.04,3281843.28 652295.04,3281843.28 652287.58,3281842.26 652287.58,3281842.26 652279.49,3281841.18 652279.49,3281841.18 652271.24,3281840.09 652271.24,3281840.09 652261.32,3281838.77 652261.32,3281838.77 652249.14,3281837.12 652249.14,3281837.12 652238.75,3281835.72 652238.75,3281835.72 652226.91,3281834.14 652226.91,3281834.14 652215.21,3281832.55 652215.21,3281832.55 652204.83,3281831.15 652204.83,3281831.15 652195.12,3281829.84 652195.12,3281829.84 652182.41,3281828.10 652182.41,3281828.10 652170.41,3281826.46 652170.41,3281826.46 652156.28,3281824.52 652156.28,3281824.52 652145.95,3281823.11 652145.95,3281823.11 652135.63,3281821.70 652135.63,3281821.70 652122.28,3281819.87 652122.28,3281819.87 652112.08,3281818.48 652112.08,3281818.48 652101.61,3281817.05 652101.61,3281817.05 652091.24,3281815.63 652091.24,3281815.63 652079.55,3281814.06 652079.55,3281814.06 652068.55,3281812.56 652068.55,3281812.56 652054.05,3281810.60 652054.05,3281810.60 652040.57,3281808.77 652040.57,3281808.77 652028.84,3281807.17 652028.84,3281807.17 652016.29,3281805.48 652016.29,3281805.48 652004.49,3281803.88 652004.49,3281803.88 651992.39,3281802.24 651992.39,3281802.24 651983.41,3281801.01 651983.41,3281801.01 651970.71,3281799.29 651970.71,3281799.29 651961.22,3281798.01 651961.22,3281798.01 651951.89,3281796.74 651951.89,3281796.74 651939.76,3281795.10 651939.76,3281795.10 651929.49,3281793.68 651929.49,3281793.68 651919.20,3281792.29 651919.20,3281792.29 651911.62,3281791.28 651911.62,3281791.28 651900.64,3281789.78 651900.64,3281789.78 651892.74,3281788.71 651892.74,3281788.71 651881.31,3281787.16 651881.31,3281787.16 651869.75,3281785.59 651869.75,3281785.59 651853.31,3281783.37 651853.31,3281783.37 651829.93,3281780.19 651829.93,3281780.19 651820.77,3281778.95 651820.77,3281778.95 651804.62,3281776.79 651804.62,3281776.79 651788.86,3281774.63 651788.86,3281774.63 651773.59,3281772.58 651773.59,3281772.58 651761.37,3281770.93 651761.37,3281770.93 651746.99,3281769.01 651746.99,3281769.01 651727.40,3281766.35 651727.40,3281766.35 651705.26,3281763.34 651705.26,3281763.34 651690.05,3281761.29 651690.05,3281761.29 651677.07,3281759.55 651677.07,3281759.55 651659.13,3281757.15 651659.13,3281757.15 651645.70,3281755.32 651645.70,3281755.32 651628.63,3281753.03 651628.63,3281753.03 651613.30,3281750.94 651613.30,3281750.94 651602.80,3281749.50 651602.80,3281749.50 651588.01,3281747.51 651588.01,3281747.51 651573.41,3281745.50 651573.41,3281745.50 651561.50,3281743.90 651561.50,3281743.90 651554.16,3281742.91 651554.16,3281742.91 651540.75,3281741.11 651540.75,3281741.11 651531.46,3281739.86 651531.46,3281739.86 651519.42,3281738.23 651519.42,3281738.23 651507.51,3281736.63 651507.51,3281736.63 651494.25,3281734.84 651494.25,3281734.84 651481.67,3281733.16 651481.67,3281733.16 651471.97,3281731.87 651471.97,3281731.87 651462.59,3281730.63 651462.59,3281730.63 651450.40,3281728.98 651450.40,3281728.98 651435.91,3281727.03 651435.91,3281727.03 651418.52,3281724.67 651418.52,3281724.67 651403.66,3281722.66 651403.66,3281722.66 651391.74,3281721.04 651391.74,3281721.04 651382.07,3281719.72 651382.07,3281719.72 651367.44,3281717.78 651367.44,3281717.78 651355.67,3281716.19 651355.67,3281716.19 651345.63,3281714.84 651345.63,3281714.84 651335.55,3281713.47 651335.55,3281713.47 651325.45,3281712.07 651325.45,3281712.07 651314.58,3281710.59 651314.58,3281710.59 651306.82,3281709.50 651306.82,3281709.50 651295.37,3281707.97 651295.37,3281707.97 651287.27,3281706.84 651287.27,3281706.84 651280.41,3281705.90 651280.41,3281705.90 651271.78,3281704.76 651271.78,3281704.76 651263.51,3281703.65 651263.51,3281703.65 651252.77,3281702.20 651252.77,3281702.20 651241.26,3281700.65 651241.26,3281700.65 651229.27,3281699.02 651229.27,3281699.02 651214.83,3281697.07 651214.83,3281697.07 651192.08,3281694.01 651192.08,3281694.01 651171.43,3281691.26 651171.43,3281691.26 651157.88,3281689.41 651157.88,3281689.41 651139.21,3281686.91 651139.21,3281686.91 651128.06,3281685.35 651128.06,3281685.35 651109.02,3281682.84 651109.02,3281682.84 651097.35,3281681.26 651097.35,3281681.26 651082.41,3281679.25 651082.41,3281679.25 651069.07,3281677.44 651069.07,3281677.44 651055.53,3281675.60 651055.53,3281675.60 651042.31,3281673.83 651042.31,3281673.83 651030.02,3281672.16 651030.02,3281672.16 651015.45,3281670.19 651015.45,3281670.19 650999.09,3281668.00 650999.09,3281668.00 650980.82,3281665.52 650980.82,3281665.52 650972.04,3281664.33 650972.04,3281664.33 650963.27,3281663.16 650963.27,3281663.16 650944.37,3281660.59 650944.37,3281660.59 650926.11,3281658.12 650926.11,3281658.12 650907.69,3281655.62 650907.69,3281655.62 650890.91,3281653.34 650890.91,3281653.34 650876.50,3281651.41 650876.50,3281651.41 650864.95,3281649.85 650864.95,3281649.85 650855.22,3281648.53 650855.22,3281648.53 650838.73,3281646.30 650838.73,3281646.30 650824.04,3281644.33 650824.04,3281644.33 650809.42,3281642.36 650809.42,3281642.36 650796.70,3281640.66 650796.70,3281640.66 650787.20,3281639.39 650787.20,3281639.39 650773.96,3281637.58 650773.96,3281637.58 650758.94,3281635.55 650758.94,3281635.55 650748.38,3281634.12 650748.38,3281634.12 650733.92,3281632.14 650733.92,3281632.14 650720.82,3281630.37 650720.82,3281630.37 650707.77,3281628.60 650707.77,3281628.60 650696.52,3281627.08 650696.52,3281627.08 650681.94,3281625.11 650681.94,3281625.11 650668.47,3281623.28 650668.47,3281623.28 650654.83,3281621.45 650654.83,3281621.45 650639.90,3281619.41 650639.90,3281619.41 650629.28,3281617.97 650629.28,3281617.97 650617.47,3281616.34 650617.47,3281616.34 650607.73,3281615.04 650607.73,3281615.04 650598.06,3281613.73 650598.06,3281613.73 650585.62,3281612.04 650585.62,3281612.04 650575.01,3281610.59 650575.01,3281610.59 650564.83,3281609.19 650564.83,3281609.19 650553.33,3281607.62 650553.33,3281607.62 650538.34,3281605.56 650538.34,3281605.56 650525.39,3281603.79 650525.39,3281603.79 650513.08,3281602.12 650513.08,3281602.12 650501.58,3281600.57 650501.58,3281600.57 650488.26,3281598.79 650488.26,3281598.79 650477.17,3281597.28 650477.17,3281597.28 650464.51,3281595.55 650464.51,3281595.55 650451.37,3281593.78 650451.37,3281593.78 650441.22,3281592.40 650441.22,3281592.40 650431.74,3281591.13 650431.74,3281591.13 650412.57,3281588.56 650412.57,3281588.56 650396.56,3281586.42 650396.56,3281586.42 650378.45,3281583.97 650378.45,3281583.97 650351.02,3281580.30 650351.02,3281580.30 650328.43,3281577.23 650328.43,3281577.23 650308.83,3281574.61 650308.83,3281574.61 650290.16,3281572.11 650290.16,3281572.11 650271.28,3281569.59 650271.28,3281569.59 650251.87,3281567.00 650251.87,3281567.00 650233.44,3281564.53 650233.44,3281564.53 650218.67,3281562.55 650218.67,3281562.55 650204.64,3281560.68 650204.64,3281560.68 650183.74,3281557.88 650183.74,3281557.88 650168.06,3281555.75 650168.06,3281555.75 650151.81,3281553.54 650151.81,3281553.54 650137.61,3281551.59 650137.61,3281551.59 650121.39,3281549.36 650121.39,3281549.36 650107.08,3281547.36 650107.08,3281547.36 650088.31,3281544.68 650088.31,3281544.68 650072.14,3281542.37 650072.14,3281542.37 650059.56,3281540.54 650059.56,3281540.54 650045.22,3281538.48 650045.22,3281538.48 650030.30,3281536.31 650030.30,3281536.31 650016.29,3281534.26 650016.29,3281534.26 650002.96,3281532.25 650002.96,3281532.25 649988.65,3281530.02 649988.65,3281530.02 649978.20,3281528.39 649978.20,3281528.39 649967.00,3281526.61 649967.00,3281526.61 649956.28,3281524.89 649956.28,3281524.89 649945.59,3281523.14 649945.59,3281523.14 649933.52,3281521.17 649933.52,3281521.17 649921.40,3281519.15 649921.40,3281519.15 649904.91,3281516.37 649904.91,3281516.37 649889.32,3281513.72 649889.32,3281513.72 649872.53,3281510.87 649872.53,3281510.87 649856.33,3281508.05 649856.33,3281508.05 649843.35,3281505.76 649843.35,3281505.76 649828.82,3281503.19 649828.82,3281503.19 649817.00,3281501.10 649817.00,3281501.10 649802.66,3281498.55 649802.66,3281498.55 649786.52,3281495.72 649786.52,3281495.72 649767.58,3281492.34 649767.58,3281492.34 649750.23,3281489.22 649750.23,3281489.22 649735.64,3281486.61 649735.64,3281486.61 649717.97,3281483.50 649717.97,3281483.50 649701.10,3281480.51 649701.10,3281480.51 649686.95,3281478.00 649686.95,3281478.00 649671.85,3281475.31 649671.85,3281475.31 649659.96,3281473.20 649659.96,3281473.20 649646.91,3281470.84 649646.91,3281470.84 649631.74,3281468.14 649631.74,3281468.14 649615.25,3281465.19 649615.25,3281465.19 649599.73,3281462.41 649599.73,3281462.41 649584.33,3281459.68 649584.33,3281459.68 649569.27,3281457.02 649569.27,3281457.02 649557.76,3281454.97 649557.76,3281454.97 649547.76,3281453.22 649547.76,3281453.22 649535.80,3281451.11 649535.80,3281451.11 649525.80,3281449.34 649525.80,3281449.34 649514.24,3281447.30 649514.24,3281447.30 649502.62,3281445.25 649502.62,3281445.25 649492.57,3281443.47 649492.57,3281443.47 649480.72,3281441.38 649480.72,3281441.38 649468.04,3281439.15 649468.04,3281439.15 649455.22,3281436.87 649455.22,3281436.87 649440.10,3281434.16 649440.10,3281434.16 649424.20,3281431.35 649424.20,3281431.35 649408.94,3281428.62 649408.94,3281428.62 649392.19,3281425.68 649392.19,3281425.68 649378.33,3281423.19 649378.33,3281423.19 649365.21,3281420.84 649365.21,3281420.84 649351.62,3281418.44 649351.62,3281418.44 649338.26,3281416.06 649338.26,3281416.06 649327.49,3281414.14 649327.49,3281414.14 649313.23,3281411.60 649313.23,3281411.60 649298.62,3281409.00 649298.62,3281409.00 649282.40,3281406.09 649282.40,3281406.09 649266.35,3281403.23 649266.35,3281403.23 649251.65,3281400.58 649251.65,3281400.58 649236.27,3281397.86 649236.27,3281397.86 649221.19,3281395.15 649221.19,3281395.15 649205.71,3281392.38 649205.71,3281392.38 649193.64,3281390.21 649193.64,3281390.21 649180.22,3281387.83 649180.22,3281387.83 649169.11,3281385.85 649169.11,3281385.85 649154.74,3281383.28 649154.74,3281383.28 649140.40,3281380.74 649140.40,3281380.74 649125.87,3281378.19 649125.87,3281378.19 649109.10,3281375.18 649109.10,3281375.18 649092.51,3281372.27 649092.51,3281372.27 649077.91,3281369.68 649077.91,3281369.68 649061.71,3281366.83 649061.71,3281366.83 649045.78,3281363.97 649045.78,3281363.97 649028.95,3281360.96 649028.95,3281360.96 649016.35,3281358.75 649016.35,3281358.75 649003.54,3281356.48 649003.54,3281356.48 648988.57,3281353.84 648988.57,3281353.84 648973.98,3281351.22 648973.98,3281351.22 648961.05,3281348.91 648961.05,3281348.91 648947.88,3281346.59 648947.88,3281346.59 648932.67,3281343.90 648932.67,3281343.90 648919.36,3281341.50 648919.36,3281341.50 648900.18,3281338.10 648900.18,3281338.10 648882.48,3281334.95 648882.48,3281334.95 648864.52,3281331.75 648864.52,3281331.75 648851.54,3281329.47 648851.54,3281329.47 648834.84,3281326.49 648834.84,3281326.49 648819.07,3281323.71 648819.07,3281323.71 648806.25,3281321.44 648806.25,3281321.44 648790.00,3281318.56 648790.00,3281318.56 648777.95,3281316.41 648777.95,3281316.41 648764.71,3281314.09 648764.71,3281314.09 648748.14,3281311.14 648748.14,3281311.14 648732.87,3281308.44 648732.87,3281308.44 648719.09,3281306.02 648719.09,3281306.02 648705.70,3281303.63 648705.70,3281303.63 648692.25,3281301.28 648692.25,3281301.28 648679.44,3281299.03 648679.44,3281299.03 648661.48,3281295.87 648661.48,3281295.87 648642.00,3281292.45 648642.00,3281292.45 648620.92,3281288.72 648620.92,3281288.72 648601.85,3281285.33 648601.85,3281285.33 648585.43,3281282.40 648585.43,3281282.40 648571.07,3281279.83 648571.07,3281279.83 648554.08,3281276.80 648554.08,3281276.80 648540.62,3281274.42 648540.62,3281274.42 648526.78,3281271.93 648526.78,3281271.93 648514.13,3281269.66 648514.13,3281269.66 648499.77,3281267.09 648499.77,3281267.09 648483.34,3281264.16 648483.34,3281264.16 648467.70,3281261.35 648467.70,3281261.35 648450.42,3281258.26 648450.42,3281258.26 648431.32,3281254.90 648431.32,3281254.90 648413.23,3281251.71 648413.23,3281251.71 648394.64,3281248.44 648394.64,3281248.44 648376.56,3281245.25 648376.56,3281245.25 648358.65,3281242.10 648358.65,3281242.10 648337.27,3281238.31 648337.27,3281238.31 648317.42,3281234.80 648317.42,3281234.80 648297.07,3281231.17 648297.07,3281231.17 648277.32,3281227.65 648277.32,3281227.65 648258.14,3281224.23 648258.14,3281224.23 648238.91,3281220.80 648238.91,3281220.80 648220.70,3281217.55 648220.70,3281217.55 648206.40,3281215.00 648206.40,3281215.00 648188.10,3281211.76 648188.10,3281211.76 648169.21,3281208.43 648169.21,3281208.43 648151.81,3281205.34 648151.81,3281205.34 648135.69,3281202.46 648135.69,3281202.46 648117.27,3281199.23 648117.27,3281199.23 648092.75,3281194.89 648092.75,3281194.89 648075.39,3281191.79 648075.39,3281191.79 648053.87,3281187.94 648053.87,3281187.94 648035.62,3281184.69 648035.62,3281184.69 648017.51,3281181.49 648017.51,3281181.49 647991.77,3281176.93 647991.77,3281176.93 647969.50,3281172.98 647969.50,3281172.98 647948.39,3281169.22 647948.39,3281169.22 647923.34,3281164.76 647923.34,3281164.76 647905.74,3281161.61 647905.74,3281161.61 647886.25,3281158.19 647886.25,3281158.19 647865.81,3281154.53 647865.81,3281154.53 647847.63,3281151.28 647847.63,3281151.28 647836.10,3281149.22 647836.10,3281149.22 647817.12,3281145.87 647817.12,3281145.87 647803.27,3281143.41 647803.27,3281143.41 647791.24,3281141.29 647791.24,3281141.29 647779.45,3281139.20 647779.45,3281139.20 647766.92,3281136.98 647766.92,3281136.98 647753.39,3281134.54 647753.39,3281134.54 647738.69,3281131.91 647738.69,3281131.91 647723.98,3281129.31 647723.98,3281129.31 647711.42,3281127.08 647711.42,3281127.08 647699.25,3281124.94 647699.25,3281124.94 647687.66,3281122.88 647687.66,3281122.88 647677.50,3281121.07 647677.50,3281121.07 647665.23,3281118.88 647665.23,3281118.88 647654.15,3281116.91 647654.15,3281116.91 647642.36,3281114.80 647642.36,3281114.80 647630.09,3281112.60 647630.09,3281112.60 647620.46,3281110.87 647620.46,3281110.87 647608.87,3281108.82 647608.87,3281108.82 647594.99,3281106.33 647594.99,3281106.33 647581.06,3281103.84 647581.06,3281103.84 647565.10,3281100.99 647565.10,3281100.99 647549.70,3281098.22 647549.70,3281098.22 647531.62,3281095.03 647531.62,3281095.03 647516.48,3281092.32 647516.48,3281092.32 647501.06,3281089.56 647501.06,3281089.56 647486.74,3281087.02 647486.74,3281087.02 647472.85,3281084.56 647472.85,3281084.56 647459.30,3281082.17 647459.30,3281082.17 647444.36,3281079.53 647444.36,3281079.53 647427.85,3281076.59 647427.85,3281076.59 647412.13,3281073.80 647412.13,3281073.80 647396.84,3281071.08 647396.84,3281071.08 647381.67,3281068.38 647381.67,3281068.38 647367.37,3281065.82 647367.37,3281065.82 647351.45,3281062.99 647351.45,3281062.99 647337.70,3281060.54 647337.70,3281060.54 647323.62,3281058.03 647323.62,3281058.03 647306.10,3281054.93 647306.10,3281054.93 647282.21,3281050.68 647282.21,3281050.68 647262.88,3281047.29 647262.88,3281047.29 647245.59,3281044.24 647245.59,3281044.24 647224.91,3281040.59 647224.91,3281040.59 647208.65,3281037.72 647208.65,3281037.72 647193.13,3281034.97 647193.13,3281034.97 647172.78,3281031.36 647172.78,3281031.36 647146.79,3281026.75 647146.79,3281026.75 647123.94,3281022.68 647123.94,3281022.68 647104.96,3281019.31 647104.96,3281019.31 647081.18,3281015.05 647081.18,3281015.05 647060.05,3281011.26 647060.05,3281011.26 647041.20,3281007.89 647041.20,3281007.89 647023.01,3281004.63 647023.01,3281004.63 647006.49,3281001.71 647006.49,3281001.71 646984.69,3280997.84 646984.69,3280997.84 646964.02,3280994.15 646964.02,3280994.15 646948.42,3280991.37 646948.42,3280991.37 646924.30,3280987.09 646924.30,3280987.09 646892.15,3280981.40 646892.15,3280981.40 646874.48,3280978.28 646874.48,3280978.28 646841.85,3280972.55 646841.85,3280972.55 646818.94,3280968.49 646818.94,3280968.49 646789.18,3280963.17 646789.18,3280963.17 646768.09,3280959.41 646768.09,3280959.41 646745.55,3280955.39 646745.55,3280955.39 646721.88,3280951.20 646721.88,3280951.20 646696.54,3280946.74 646696.54,3280946.74 646666.02,3280941.32 646666.02,3280941.32 646638.89,3280936.48 646638.89,3280936.48 646616.38,3280932.48 646616.38,3280932.48 646582.31,3280926.54 646582.31,3280926.54 646552.54,3280921.61 646552.54,3280921.61 646527.36,3280917.81 646527.36,3280917.81 646510.39,3280915.44 646510.39,3280915.44 646496.22,3280913.61 646496.22,3280913.61 646485.83,3280912.35 646485.83,3280912.35 646472.36,3280910.80 646472.36,3280910.80 646455.68,3280909.01 646455.68,3280909.01 646437.73,3280907.26 646437.73,3280907.26 646421.24,3280905.82 646421.24,3280905.82 646412.07,3280905.11 646412.07,3280905.11 646404.83,3280904.60 646404.83,3280904.60 646399.99,3280904.22 646399.99,3280904.22 646387.67,3280903.41 646387.67,3280903.41 646374.41,3280902.67 646374.41,3280902.67 646363.61,3280902.14 646363.61,3280902.14 646349.97,3280901.60 646349.97,3280901.60 646333.51,3280900.95 646333.51,3280900.95 646323.16,3280900.68 646323.16,3280900.68 646309.90,3280900.41 646309.90,3280900.41 646297.55,3280900.25 646297.55,3280900.25 646285.29,3280900.17 646285.29,3280900.17 646273.61,3280900.18 646273.61,3280900.18 646261.57,3280900.26 646261.57,3280900.26 646249.34,3280900.43 646249.34,3280900.43 646235.59,3280900.78 646235.59,3280900.78 646220.28,3280901.28 646220.28,3280901.28 646207.12,3280901.76 646207.12,3280901.76 646194.11,3280902.38 646194.11,3280902.38 646177.68,3280903.21 646177.68,3280903.21 646162.36,3280904.06 646162.36,3280904.06 646148.51,3280904.86 646148.51,3280904.86 646132.16,3280905.78 646132.16,3280905.78 646116.70,3280906.64 646116.70,3280906.64 646094.52,3280907.90 646094.52,3280907.90 646078.80,3280908.85 646078.80,3280908.85 646064.28,3280909.68 646064.28,3280909.68 646053.29,3280910.35 646053.29,3280910.35 646039.37,3280911.11 646039.37,3280911.11 646027.88,3280911.79 646027.88,3280911.79 646009.06,3280912.81 646009.06,3280912.81 645993.20,3280913.73 645993.20,3280913.73 645977.83,3280914.54 645977.83,3280914.54 645962.32,3280915.44 645962.32,3280915.44 645949.14,3280916.19 645949.14,3280916.19 645935.01,3280917.06 645935.01,3280917.06 645920.17,3280917.88 645920.17,3280917.88 645908.59,3280918.52 645908.59,3280918.52 645896.01,3280919.21 645896.01,3280919.21 645882.11,3280920.05 645882.11,3280920.05 645869.66,3280920.75 645869.66,3280920.75 645851.41,3280921.75 645851.41,3280921.75 645834.32,3280922.66 645834.32,3280922.66 645822.47,3280923.36 645822.47,3280923.36 645808.62,3280924.17 645808.62,3280924.17 645788.88,3280925.27 645788.88,3280925.27 645773.58,3280926.11 645773.58,3280926.11 645752.53,3280927.27 645752.53,3280927.27 645738.21,3280928.11 645738.21,3280928.11 645717.22,3280929.27 645717.22,3280929.27 645697.21,3280930.45 645697.21,3280930.45 645677.88,3280931.58 645677.88,3280931.58 645651.18,3280933.08 645651.18,3280933.08 645625.04,3280934.56 645625.04,3280934.56 645611.52,3280935.33 645611.52,3280935.33 645589.53,3280936.63 645589.53,3280936.63 645565.24,3280937.95 645565.24,3280937.95 645538.38,3280939.43 645538.38,3280939.43 645512.67,3280940.90 645512.67,3280940.90 645487.61,3280942.33 645487.61,3280942.33 645461.09,3280943.82 645461.09,3280943.82 645435.11,3280945.27 645435.11,3280945.27 645419.21,3280946.15 645419.21,3280946.15 645397.59,3280947.46 645397.59,3280947.46 645377.43,3280948.61 645377.43,3280948.61 645359.66,3280949.58 645359.66,3280949.58 645339.52,3280950.70 645339.52,3280950.70 645314.13,3280952.12 645314.13,3280952.12 645286.52,3280953.69 645286.52,3280953.69 645256.12,3280955.38 645256.12,3280955.38 645233.04,3280956.66 645233.04,3280956.66 645210.70,3280957.97">
        <lane index="0" width="3.66" type="shoulder" disallow="all" />
        <lane index="1" width="3.66" />
        <lane index="2" width="3.66" />
    </edge>
    <edge id="398.0" from="junction_94" to="node_398_end" numLanes="2" speed="13.89" type="town" shape="645111.15,3280963.66 645090.25,3280964.80">
        <lane index="0" width="3.66" />
        <lane index="1" width="3.66" />
    </edge>
    <edge id="399.0" from="node_398_end" to="junction_31" numLanes="3" speed="13.89" type="town" shape="645090.25,3280964.80 645075.44,3280965.70 645075.44,3280965.70 645052.35,3280967.07 645052.35,3280967.07 645026.59,3280968.59 645026.59,3280968.59 644991.59,3280970.57 644991.59,3280970.57 644962.08,3280972.21 644962.08,3280972.21 644936.39,3280973.73 644936.39,3280973.73 644913.79,3280975.01 644913.79,3280975.01 644892.72,3280976.25 644892.72,3280976.25 644865.75,3280977.77 644865.75,3280977.77 644841.92,3280979.11 644841.92,3280979.11 644826.01,3280979.94 644826.01,3280979.94 644799.50,3280981.38 644799.50,3280981.38 644777.56,3280982.56 644777.56,3280982.56 644754.92,3280983.81 644754.92,3280983.81 644730.33,3280985.25 644730.33,3280985.25 644701.65,3280986.88 644701.65,3280986.88 644674.48,3280988.53 644674.48,3280988.53 644650.61,3280990.02 644650.61,3280990.02 644629.27,3280991.26 644629.27,3280991.26 644610.51,3280992.41 644610.51,3280992.41 644590.70,3280993.55 644590.70,3280993.55 644565.01,3280995.06 644565.01,3280995.06 644541.97,3280996.36 644541.97,3280996.36 644518.94,3280997.61 644518.94,3280997.61 644489.06,3280999.24 644489.06,3280999.24 644464.47,3281000.59">
        <lane index="0" width="3.66" type="shoulder" disallow="all" />
        <lane index="1" width="3.66" />
        <lane index="2" width="3.66" />
    </edge>