<?xml version='1.0' encoding='utf-8'?>
<edges>
    <edge id="441.0" from="node_441_start" to="node_441_end" numLanes="2" speed="13.89" type="town" shape="676896.22,3286030.93 676904.54,3286030.98 676904.54,3286030.98 676952.99,3286031.19 676952.99,3286031.19 677001.31,3286031.45 677001.31,3286031.45 677036.30,3286031.63">
        <lane index="0" width="3.66" />
        <lane index="1" width="3.66" />
    </edge>
    <edge id="442.0" from="node_441_end" to="node_442_end" numLanes="2" speed="13.89" type="town" shape="677036.30,3286031.63 677086.71,3286031.87 677086.71,3286031.87 677146.36,3286032.16 677146.36,3286032.16 677182.87,3286032.38 677182.87,3286032.38 677212.71,3286032.50">
        <lane index="0" width="3.66" />
        <lane index="1" width="3.66" />
    </edge>
    <edge id="443.0" from="node_443_start" to="node_441_start" numLanes="3" speed="13.89" type="town" shape="676022.75,3286026.71 676047.26,3286026.81 676047.26,3286026.81 676107.20,3286027.02 676107.20,3286027.02 676155.58,3286027.25 676155.58,3286027.25 676203.39,3286027.50 676203.39,3286027.50 676252.19,3286027.71 676252.19,3286027.71 676301.07,3286028.03 676301.07,3286028.03 676396.72,3286028.43 676396.72,3286028.43 676493.02,3286028.91 676493.02,3286028.91 676638.52,3286029.66 676638.52,3286029.66 676747.01,3286030.18 676747.01,3286030.18 676807.51,3286030.48 676807.51,3286030.48 676896.22,3286030.93">
        <lane index="0" width="3.66" type="shoulder" disallow="all" />
        <lane index="1" width="3.66" />
        <lane index="2" width="3.66" />
    </edge>
    <edge id="453.0" from="node_453_start" to="j_merge_start_29" numLanes="1" speed="13.89" type="town" shape="683786.40,3286649.63 683803.67,3286652.45 683803.67,3286652.45 683861.14,3286663.00 683861.14,3286663.00 683892.01,3286668.72 683892.01,3286668.72 683929.55,3286675.55 683929.55,3286675.55 683951.10,3286679.66 683951.10,3286679.66 683965.78,3286682.15 683965.78,3286682.15 683988.72,3286686.03 683988.72,3286686.03 684004.14,3286688.20 684004.14,3286688.20 684021.68,3286690.55 684021.68,3286690.55 684038.17,3286692.33 684038.17,3286692.33 684048.59,3286693.37 684048.59,3286693.37 684061.58,3286694.52 684061.58,3286694.52 684075.24,3286695.62 684075.24,3286695.62 684087.83,3286696.50">
        <lane index="0" width="3.66" />
    </edge>
    <edge id="455.0" from="node_455_start" to="node_455_end" numLanes="3" speed="13.89" type="town" shape="683562.35,3286682.06 683564.23,3286682.14 683564.23,3286682.14 683576.67,3286682.61 683576.67,3286682.61 683588.31,3286683.08 683588.31,3286683.08 683595.06,3286683.35 683595.06,3286683.35 683608.74,3286683.89 683608.74,3286683.89 683619.62,3286684.31 683619.62,3286684.31 683631.93,3286684.77 683631.93,3286684.77 683634.09,3286684.86">
        <lane index="0" width="3.66" type="shoulder" disallow="all" />
        <lane index="1" width="3.66" />
        <lane index="2" width="3.66" />
    </edge>
    <edge id="456.0" from="node_455_end" to="node_456_end" numLanes="3" speed="13.89" type="town" shape="683634.09,3286684.86 683643.64,3286685.24 683643.64,3286685.24 683658.21,3286685.81 683658.21,3286685.81 683675.01,3286686.48 683675.01,3286686.48 683691.18,3286687.15 683691.18,3286687.15 683709.32,3286687.93 683709.32,3286687.93 683724.80,3286688.58 683724.80,3286688.58 683741.17,3286689.29 683741.17,3286689.29 683757.60,3286690.04 683757.60,3286690.04 683766.14,3286690.41 683766.14,3286690.41 683775.94,3286690.80 683775.94,3286690.80 683787.52,3286691.34 683787.52,3286691.34 683799.00,3286691.85 683799.00,3286691.85 683807.79,3286692.23 683807.79,3286692.23 683818.66,3286692.70 683818.66,3286692.70 683829.14,3286693.15 683829.14,3286693.15 683840.23,3286693.58 683840.23,3286693.58 683852.39,3286694.11 683852.39,3286694.11 683864.79,3286694.69 683864.79,3286694.69 683876.21,3286695.18">
        <lane index="0" width="3.66" type="shoulder" disallow="all" />
        <lane index="1" width="3.66" />
        <lane index="2" width="3.66" />
    </edge>
    <edge id="457.0" from="node_456_end" to="node_457_end" numLanes="3" speed="13.89" type="town" shape="683876.21,3286695.18 683885.57,3286695.59 683885.57,3286695.59 683896.29,3286696.07 683896.29,3286696.07 683906.23,3286696.48 683906.23,3286696.48 683918.17,3286697.03 683918.17,3286697.03 683933.18,3286697.67 683933.18,3286697.67 683946.54,3286698.23 683946.54,3286698.23 683960.22,3286698.77 683960.22,3286698.77 683972.26,3286699.25 683972.26,3286699.25 683976.46,3286699.43">
        <lane index="0" width="3.66" type="shoulder" disallow="all" />
        <lane index="1" width="3.66" />
        <lane index="2" width="3.66" />
    </edge>
    <edge id="458.0" from="node_458_start" to="node_458_end" numLanes="3" speed="13.89" type="town" shape="682713.29,3286647.18 682717.86,3286647.38 682717.86,3286647.38 682735.22,3286648.07 682735.22,3286648.07 682750.97,3286648.72 682750.97,3286648.72 682768.98,3286649.43 682768.98,3286649.43 682783.94,3286650.03 682783.94,3286650.03 682801.78,3286650.75 682801.78,3286650.75 682820.14,3286651.51 682820.14,3286651.51 682838.17,3286652.24 682838.17,3286652.24 682857.33,3286653.02 682857.33,3286653.02 682876.73,3286653.81 682876.73,3286653.81 682895.74,3286654.59 682895.74,3286654.59 682914.90,3286655.37 682914.90,3286655.37 682933.33,3286656.10 682933.33,3286656.10 682953.23,3286656.93 682953.23,3286656.93 682972.96,3286657.74 682972.96,3286657.74 682995.96,3286658.69 682995.96,3286658.69 683016.33,3286659.52 683016.33,3286659.52 683032.99,3286660.23 683032.99,3286660.23 683051.28,3286660.98 683051.28,3286660.98 683066.21,3286661.58 683066.21,3286661.58 683082.71,3286662.28 683082.71,3286662.28 683100.52,3286663.02 683100.52,3286663.02 683116.64,3286663.67 683116.64,3286663.67 683134.58,3286664.39 683134.58,3286664.39 683152.21,3286665.11 683152.21,3286665.11 683172.43,3286665.97 683172.43,3286665.97 683192.65,3286666.74 683192.65,3286666.74 683209.27,3286667.43 683209.27,3286667.43 683227.25,3286668.15 683227.25,3286668.15 683243.31,3286668.79 683243.31,3286668.79 683255.10,3286669.30 683255.10,3286669.30 683267.49,3286669.79 683267.49,3286669.79 683281.85,3286670.40 683281.85,3286670.40 683297.88,3286671.04 683297.88,3286671.04 683313.18,3286671.65 683313.18,3286671.65 683331.27,3286672.39 683331.27,3286672.39 683348.07,3286673.06 683348.07,3286673.06 683363.07,3286673.69 683363.07,3286673.69 683377.33,3286674.29 683377.33,3286674.29 683395.13,3286675.02 683395.13,3286675.02 683411.66,3286675.74 683411.66,3286675.74 683426.88,3286676.45 683426.88,3286676.45 683442.87,3286677.13 683442.87,3286677.13 683462.80,3286678.05 683462.80,3286678.05 683471.55,3286678.42">
        <lane index="0" width="3.66" type="shoulder" disallow="all" />
        <lane index="1" width="3.66" />
        <lane index="2" width="3.66" />
    </edge>
    <edge id="459.0" from="node_458_end" to="node_455_start" numLanes="3" speed="13.89" type="town" shape="683471.55,3286678.42 683481.09,3286678.82 683481.09,3286678.82 683499.37,3286679.52 683499.37,3286679.52 683518.14,3286680.29 683518.14,3286680.29 683535.70,3286680.98 683535.70,3286680.98 683555.10,3286681.74 683555.10,3286681.74 683562.35,3286682.06">
        <lane index="0" width="3.66" type="shoulder" disallow="all" />
        <lane index="1" width="3.66" />
        <lane index="2" width="3.66" />
    </edge>
    <edge id="460.0" from="junction_86" to="node_460_end" numLanes="1" speed="13.89" type="town" shape="682626.46,3286636.17 682637.21,3286635.73 682637.21,3286635.73 682650.67,3286635.16 682650.67,3286635.16 682666.49,3286634.49 682666.49,3286634.49 682680.57,3286633.85 682680.57,3286633.85 682701.18,3286632.90 682701.18,3286632.90 682722.99,3286631.90 682722.99,3286631.90 682742.58,3286630.85 682742.58,3286630.85 682761.99,3286629.89 682761.99,3286629.89 682778.53,3286628.94 682778.53,3286628.94 682796.27,3286627.65 682796.27,3286627.65 682809.42,3286626.46 682809.42,3286626.46 682819.68,3286625.34 682819.68,3286625.34 682831.55,3286623.93 682831.55,3286623.93 682846.34,3286621.95 682846.34,3286621.95 682859.04,3286620.08 682859.04,3286620.08 682872.88,3286617.69 682872.88,3286617.69 682892.61,3286614.29">
        <lane index="0" width="3.66" />
    </edge>
    <edge id="461.0" from="node_461_start" to="junction_86" numLanes="3" speed="13.89" type="town" shape="678442.01,3286250.66 678455.02,3286254.46 678455.02,3286254.46 678477.49,3286261.03 678477.49,3286261.03 678491.08,3286265.01 678491.08,3286265.01 678502.66,3286268.40 678502.66,3286268.40 678514.46,3286271.85 678514.46,3286271.85 678524.06,3286274.65 678524.06,3286274.65 678535.08,3286277.90 678535.08,3286277.90 678545.69,3286281.00 678545.69,3286281.00 678557.63,3286284.48 678557.63,3286284.48 678569.16,3286287.88 678569.16,3286287.88 678580.27,3286291.09 678580.27,3286291.09 678590.81,3286294.18 678590.81,3286294.18 678602.19,3286297.52 678602.19,3286297.52 678611.30,3286300.20 678611.30,3286300.20 678621.28,3286303.11 678621.28,3286303.11 678632.67,3286306.43 678632.67,3286306.43 678643.64,3286309.63 678643.64,3286309.63 678657.11,3286313.59 678657.11,3286313.59 678668.32,3286316.91 678668.32,3286316.91 678677.74,3286319.68 678677.74,3286319.68 678687.43,3286322.51 678687.43,3286322.51 678696.60,3286325.23 678696.60,3286325.23 678705.73,3286327.89 678705.73,3286327.89 678718.61,3286331.69 678718.61,3286331.69 678730.29,3286335.14 678730.29,3286335.14 678743.42,3286338.97 678743.42,3286338.97 678756.11,3286342.70 678756.11,3286342.70 678766.72,3286345.78 678766.72,3286345.78 678780.38,3286349.80 678780.38,3286349.80 678794.25,3286353.85 678794.25,3286353.85 678805.80,3286357.26 678805.80,3286357.26 678817.85,3286360.77 678817.85,3286360.77 678829.80,3286364.27 678829.80,3286364.27 678840.89,3286367.51 678840.89,3286367.51 678852.09,3286370.78 678852.09,3286370.78 678863.35,3286374.11 678863.35,3286374.11 678872.72,3286376.82 678872.72,3286376.82 678884.35,3286380.21 678884.35,3286380.21 678894.59,3286383.19 678894.59,3286383.19 678904.63,3286386.13 678904.63,3286386.13 678915.54,3286389.33 678915.54,3286389.33 678928.48,3286393.11 678928.48,3286393.11 678940.46,3286396.61 678940.46,3286396.61 678952.29,3286400.08 678952.29,3286400.08 678961.23,3286402.66 678961.23,3286402.66 678971.23,3286405.57 678971.23,3286405.57 678980.57,3286408.26 678980.57,3286408.26 678986.21,3286409.90 678986.21,3286409.90 678991.03,3286411.31 678991.03,3286411.31 678996.67,3286412.93 678996.67,3286412.93 679007.34,3286416.03 679007.34,3286416.03 679015.40,3286418.40 679015.40,3286418.40 679025.09,3286421.25 679025.09,3286421.25 679035.30,3286424.22 679035.30,3286424.22 679045.42,3286427.13 679045.42,3286427.13 679055.83,3286430.14 679055.83,3286430.14 679069.40,3286434.00 679069.40,3286434.00 679082.97,3286437.85 679082.97,3286437.85 679093.30,3286440.72 679093.30,3286440.72 679106.26,3286444.27 679106.26,3286444.27 679120.16,3286447.99 679120.16,3286447.99 679134.14,3286451.57 679134.14,3286451.57 679145.96,3286454.53 679145.96,3286454.53 679158.15,3286457.46 679158.15,3286457.46 679172.82,3286460.89 679172.82,3286460.89 679180.97,3286462.70 679180.97,3286462.70 679189.54,3286464.63 679189.54,3286464.63 679196.71,3286466.14 679196.71,3286466.14 679206.27,3286468.11 679206.27,3286468.11 679216.35,3286470.10 679216.35,3286470.10 679226.68,3286472.08 679226.68,3286472.08 679237.05,3286473.97 679237.05,3286473.97 679246.08,3286475.57 679246.08,3286475.57 679255.51,3286477.21 679255.51,3286477.21 679266.59,3286479.09 679266.59,3286479.09 679276.24,3286480.61 679276.24,3286480.61 679289.13,3286482.70 679289.13,3286482.70 679297.62,3286484.04 679297.62,3286484.04 679308.46,3286485.74 679308.46,3286485.74 679319.44,3286487.47 679319.44,3286487.47 679332.35,3286489.50 679332.35,3286489.50 679343.03,3286491.15 679343.03,3286491.15 679352.36,3286492.60 679352.36,3286492.60 679361.13,3286494.00 679361.13,3286494.00 679375.76,3286496.30 679375.76,3286496.30 679391.03,3286498.68 679391.03,3286498.68 679400.11,3286500.09 679400.11,3286500.09 679410.63,3286501.75 679410.63,3286501.75 679420.91,3286503.38 679420.91,3286503.38 679428.87,3286504.62 679428.87,3286504.62 679440.08,3286506.38 679440.08,3286506.38 679451.81,3286508.21 679451.81,3286508.21 679458.38,3286509.22 679458.38,3286509.22 679474.47,3286511.75 679474.47,3286511.75 679490.39,3286514.24 679490.39,3286514.24 679503.74,3286516.31 679503.74,3286516.31 679518.02,3286518.52 679518.02,3286518.52 679534.19,3286521.06 679534.19,3286521.06 679553.57,3286524.12 679553.57,3286524.12 679577.21,3286527.82 679577.21,3286527.82 679601.25,3286531.57 679601.25,3286531.57 679620.86,3286534.63 679620.86,3286534.63 679632.30,3286536.43 679632.30,3286536.43 679641.76,3286537.88 679641.76,3286537.88 679652.13,3286539.49 679652.13,3286539.49 679662.51,3286541.08 679662.51,3286541.08 679673.23,3286542.76 679673.23,3286542.76 679687.29,3286544.93 679687.29,3286544.93 679698.60,3286546.70 679698.60,3286546.70 679713.55,3286549.05 679713.55,3286549.05 679726.29,3286551.06 679726.29,3286551.06 679740.39,3286553.26 679740.39,3286553.26 679754.81,3286555.53 679754.81,3286555.53 679779.05,3286559.36 679779.05,3286559.36 679792.54,3286561.49 679792.54,3286561.49 679806.86,3286563.76 679806.86,3286563.76 679822.79,3286566.27 679822.79,3286566.27 679836.44,3286568.37 679836.44,3286568.37 679848.92,3286570.29 679848.92,3286570.29 679862.74,3286572.29 679862.74,3286572.29 679876.30,3286574.21 679876.30,3286574.21 679884.54,3286575.33 679884.54,3286575.33 679895.37,3286576.84 679895.37,3286576.84 679907.89,3286578.48 679907.89,3286578.48 679919.81,3286580.03 679919.81,3286580.03 679931.65,3286581.56 679931.65,3286581.56 679941.68,3286582.78 679941.68,3286582.78 679954.93,3286584.28 679954.93,3286584.28 679964.35,3286585.28 679964.35,3286585.28 679978.67,3286586.66 679978.67,3286586.66 679990.47,3286587.75 679990.47,3286587.75 680004.28,3286588.93 680004.28,3286588.93 680017.01,3286589.89 680017.01,3286589.89 680026.52,3286590.53 680026.52,3286590.53 680030.78,3286590.82 680030.78,3286590.82 680037.23,3286591.23 680037.23,3286591.23 680045.64,3286591.70 680045.64,3286591.70 680054.71,3286592.19 680054.71,3286592.19 680065.25,3286592.70 680065.25,3286592.70 680076.19,3286593.15 680076.19,3286593.15 680088.97,3286593.61 680088.97,3286593.61 680100.13,3286593.94 680100.13,3286593.94 680112.45,3286594.19 680112.45,3286594.19 680125.42,3286594.47 680125.42,3286594.47 680139.43,3286594.67 680139.43,3286594.67 680152.08,3286594.78 680152.08,3286594.78 680162.87,3286594.83 680162.87,3286594.83 680175.23,3286594.86 680175.23,3286594.86 680186.42,3286594.86 680186.42,3286594.86 680200.90,3286594.87 680200.90,3286594.87 680213.60,3286594.92 680213.60,3286594.92 680227.15,3286594.94 680227.15,3286594.94 680247.80,3286595.01 680247.80,3286595.01 680262.46,3286595.01 680262.46,3286595.01 680276.84,3286595.03 680276.84,3286595.03 680296.18,3286595.01 680296.18,3286595.01 680314.68,3286595.00 680314.68,3286595.00 680332.57,3286595.01 680332.57,3286595.01 680347.17,3286595.01 680347.17,3286595.01 680358.96,3286595.04 680358.96,3286595.04 680370.53,3286595.01 680370.53,3286595.01 680382.99,3286595.05 680382.99,3286595.05 680398.61,3286595.07 680398.61,3286595.07 680413.61,3286595.12 680413.61,3286595.12 680433.86,3286595.14 680433.86,3286595.14 680450.47,3286595.16 680450.47,3286595.16 680467.28,3286595.20 680467.28,3286595.20 680484.87,3286595.19 680484.87,3286595.19 680503.73,3286595.23 680503.73,3286595.23 680520.51,3286595.25 680520.51,3286595.25 680539.00,3286595.33 680539.00,3286595.33 680551.82,3286595.35 680551.82,3286595.35 680562.36,3286595.39 680562.36,3286595.39 680572.47,3286595.41 680572.47,3286595.41 680589.27,3286595.46 680589.27,3286595.46 680599.42,3286595.52 680599.42,3286595.52 680608.91,3286595.50 680608.91,3286595.50 680619.11,3286595.60 680619.11,3286595.60 680632.29,3286595.62 680632.29,3286595.62 680643.39,3286595.65 680643.39,3286595.65 680655.02,3286595.69 680655.02,3286595.69 680666.75,3286595.72 680666.75,3286595.72 680678.36,3286595.76 680678.36,3286595.76 680690.27,3286595.77 680690.27,3286595.77 680702.86,3286595.79 680702.86,3286595.79 680714.62,3286595.79 680714.62,3286595.79 680725.34,3286595.82 680725.34,3286595.82 680738.32,3286595.83 680738.32,3286595.83 680747.48,3286595.85 680747.48,3286595.85 680758.15,3286595.84 680758.15,3286595.84 680770.86,3286595.87 680770.86,3286595.87 680784.20,3286595.86 680784.20,3286595.86 680798.59,3286595.89 680798.59,3286595.89 680816.41,3286595.99 680816.41,3286595.99 680834.23,3286596.02 680834.23,3286596.02 680852.27,3286596.08 680852.27,3286596.08 680864.61,3286596.11 680864.61,3286596.11 680877.20,3286596.15 680877.20,3286596.15 680891.33,3286596.16 680891.33,3286596.16 680907.30,3286596.22 680907.30,3286596.22 680924.58,3286596.28 680924.58,3286596.28 680936.70,3286596.31 680936.70,3286596.31 680956.10,3286596.39 680956.10,3286596.39 680976.53,3286596.43 680976.53,3286596.43 680996.83,3286596.48 680996.83,3286596.48 681017.81,3286596.51 681017.81,3286596.51 681038.44,3286596.54 681038.44,3286596.54 681059.11,3286596.53 681059.11,3286596.53 681078.44,3286596.58 681078.44,3286596.58 681098.77,3286596.61 681098.77,3286596.61 681114.82,3286596.64 681114.82,3286596.64 681128.56,3286596.69 681128.56,3286596.69 681143.77,3286596.72 681143.77,3286596.72 681167.24,3286596.80 681167.24,3286596.80 681184.02,3286596.84 681184.02,3286596.84 681201.35,3286596.85 681201.35,3286596.85 681218.06,3286596.91 681218.06,3286596.91 681234.12,3286596.95 681234.12,3286596.95 681250.19,3286596.98 681250.19,3286596.98 681265.51,3286596.98 681265.51,3286596.98 681282.55,3286597.01 681282.55,3286597.01 681300.25,3286597.00 681300.25,3286597.00 681317.50,3286597.05 681317.50,3286597.05 681331.50,3286597.03 681331.50,3286597.03 681346.49,3286597.06 681346.49,3286597.06 681362.03,3286597.10 681362.03,3286597.10 681375.28,3286597.14 681375.28,3286597.14 681391.10,3286597.18 681391.10,3286597.18 681406.02,3286597.22 681406.02,3286597.22 681420.50,3286597.33 681420.50,3286597.33 681436.35,3286597.44 681436.35,3286597.44 681451.81,3286597.55 681451.81,3286597.55 681467.72,3286597.70 681467.72,3286597.70 681483.40,3286597.88 681483.40,3286597.88 681499.12,3286598.15 681499.12,3286598.15 681514.90,3286598.48 681514.90,3286598.48 681530.86,3286598.88 681530.86,3286598.88 681548.15,3286599.39 681548.15,3286599.39 681564.30,3286599.88 681564.30,3286599.88 681580.25,3286600.48 681580.25,3286600.48 681596.11,3286601.05 681596.11,3286601.05 681614.01,3286601.80 681614.01,3286601.80 681634.11,3286602.57 681634.11,3286602.57 681650.11,3286603.25 681650.11,3286603.25 681666.80,3286603.93 681666.80,3286603.93 681683.05,3286604.63 681683.05,3286604.63 681699.00,3286605.27 681699.00,3286605.27 681715.20,3286605.94 681715.20,3286605.94 681731.42,3286606.61 681731.42,3286606.61 681747.42,3286607.25 681747.42,3286607.25 681762.63,3286607.88 681762.63,3286607.88 681773.82,3286608.38 681773.82,3286608.38 681787.28,3286608.94 681787.28,3286608.94 681799.88,3286609.45 681799.88,3286609.45 681813.19,3286610.01 681813.19,3286610.01 681826.72,3286610.59 681826.72,3286610.59 681840.50,3286611.14 681840.50,3286611.14 681852.10,3286611.63 681852.10,3286611.63 681864.62,3286612.16 681864.62,3286612.16 681876.35,3286612.66 681876.35,3286612.66 681889.12,3286613.16 681889.12,3286613.16 681901.19,3286613.67 681901.19,3286613.67 681914.10,3286614.20 681914.10,3286614.20 681928.12,3286614.76 681928.12,3286614.76 681944.57,3286615.45 681944.57,3286615.45 681958.64,3286616.03 681958.64,3286616.03 681973.20,3286616.62 681973.20,3286616.62 681981.60,3286616.96 681981.60,3286616.96 681993.36,3286617.45 681993.36,3286617.45 682002.67,3286617.84 682002.67,3286617.84 682014.47,3286618.29 682014.47,3286618.29 682024.83,3286618.73 682024.83,3286618.73 682034.74,3286619.13 682034.74,3286619.13 682044.25,3286619.54 682044.25,3286619.54 682054.65,3286619.93 682054.65,3286619.93 682064.65,3286620.34 682064.65,3286620.34 682076.27,3286620.82 682076.27,3286620.82 682088.60,3286621.33 682088.60,3286621.33 682100.40,3286621.81 682100.40,3286621.81 682109.75,3286622.21 682109.75,3286622.21 682120.47,3286622.64 682120.47,3286622.64 682132.69,3286623.13 682132.69,3286623.13 682144.61,3286623.65 682144.61,3286623.65 682157.39,3286624.15 682157.39,3286624.15 682169.07,3286624.62 682169.07,3286624.62 682182.63,3286625.19 682182.63,3286625.19 682195.74,3286625.75 682195.74,3286625.75 682209.56,3286626.31 682209.56,3286626.31 682224.05,3286626.90 682224.05,3286626.90 682236.55,3286627.45 682236.55,3286627.45 682248.56,3286627.96 682248.56,3286627.96 682263.17,3286628.52 682263.17,3286628.52 682276.01,3286629.07 682276.01,3286629.07 682289.91,3286629.68 682289.91,3286629.68 682302.19,3286630.14 682302.19,3286630.14 682317.14,3286630.82 682317.14,3286630.82 682329.26,3286631.33 682329.26,3286631.33 682340.52,3286631.78 682340.52,3286631.78 682350.92,3286632.21 682350.92,3286632.21 682364.45,3286632.75 682364.45,3286632.75 682379.83,3286633.40 682379.83,3286633.40 682394.40,3286633.99 682394.40,3286633.99 682407.99,3286634.58 682407.99,3286634.58 682421.58,3286635.15 682421.58,3286635.15 682437.02,3286635.81 682437.02,3286635.81 682449.17,3286636.34 682449.17,3286636.34 682462.20,3286636.87 682462.20,3286636.87 682475.77,3286637.43 682475.77,3286637.43 682489.93,3286638.00 682489.93,3286638.00 682503.64,3286638.55 682503.64,3286638.55 682517.23,3286639.10 682517.23,3286639.10 682530.75,3286639.66 682530.75,3286639.66 682544.34,3286640.23 682544.34,3286640.23 682558.99,3286640.77 682558.99,3286640.77 682565.10,3286641.04">
        <lane index="0" width="3.66" type="shoulder" disallow="all" />
        <lane index="1" width="3.66" />
        <lane index="2" width="3.66" />
    </edge>
    <edge id="462.0" from="node_457_end" to="j_merge_start_29" numLanes="2" speed="13.89" type="town" shape="683976.46,3286699.43 683986.13,3286699.83 683986.13,3286699.83 684000.47,3286700.44 684000.47,3286700.44 684014.19,3286700.99 684014.19,3286700.99 684031.15,3286701.65 684031.15,3286701.65 684043.26,3286702.14 684043.26,3286702.14 684061.12,3286702.81 684061.12,3286702.81 684073.99,3286703.31 684073.99,3286703.31 684082.40,3286703.68 684082.40,3286703.68 684087.63,3286703.91">
        <lane index="0" width="3.66" />
        <lane index="1" width="3.66" />
    </edge>