<?xml version="1.0" encoding="UTF-8"?>

<!-- generated on 2025-10-19 17:35:17 by Eclipse SUMO netconvert Version 1.23.1
<netconvertConfiguration xmlns:xsi="http://www.w3.org/2001/XMLSchema-instance" xsi:noNamespaceSchemaLocation="http://sumo.dlr.de/xsd/netconvertConfiguration.xsd">

    <input>
        <node-files value="/home/sdai/harry/TeraSim/jupiter/eb/jupiter_eb_tiles/tile_0073/tile_0073.nod.xml"/>
        <edge-files value="/home/sdai/harry/TeraSim/jupiter/eb/jupiter_eb_tiles/tile_0073/tile_0073.edg.xml"/>
        <connection-files value="/home/sdai/harry/TeraSim/jupiter/eb/jupiter_eb_tiles/tile_0073/tile_0073.con.xml"/>
    </input>

    <output>
        <output-file value="/home/sdai/harry/TeraSim/jupiter/eb/jupiter_eb_tiles/tile_0073/tile_0073.net.xml"/>
        <output.street-names value="true"/>
        <output.original-names value="true"/>
    </output>

    <processing>
        <geometry.remove value="false"/>
        <geometry.min-dist value="0.5"/>
        <edges.join value="false"/>
    </processing>

    <junctions>
        <no-internal-links value="false"/>
        <no-turnarounds value="true"/>
        <junctions.join value="true"/>
        <junctions.join-dist value="10"/>
        <junctions.corner-detail value="5"/>
        <junctions.internal-link-detail value="5"/>
        <junctions.limit-turn-speed value="5.5"/>
        <rectangular-lane-cut value="true"/>
        <check-lane-foes.all value="true"/>
    </junctions>

</netconvertConfiguration>
-->

<net version="1.20" junctionCornerDetail="5" junctionLinkDetail="5" rectangularLaneCut="true" limitTurnSpeed="5.50" checkLaneFoesAll="1" xmlns:xsi="http://www.w3.org/2001/XMLSchema-instance" xsi:noNamespaceSchemaLocation="http://sumo.dlr.de/xsd/net_file.xsd">

    <location netOffset="-675885.75,-3286026.07" convBoundary="0.00,0.00,16901.29,857.65" origBoundary="0.00,0.00,692787.04,3286883.72" projParameter="!"/>

    <edge id=":j_merge_end_29_0" function="internal">
        <lane id=":j_merge_end_29_0_0" index="0" speed="13.89" length="34.91" width="3.66" shape="8345.11,674.27 8354.68,675.82 8362.24,678.67 8369.81,681.53 8379.38,683.08"/>
        <lane id=":j_merge_end_29_0_1" index="1" speed="13.89" length="34.91" width="3.66" shape="8344.96,677.93 8379.53,679.42"/>
        <lane id=":j_merge_end_29_0_2" index="2" speed="13.89" length="34.91" width="3.66" shape="8344.81,681.59 8379.38,683.08"/>
    </edge>
    <edge id=":j_merge_start_29_0" function="internal">
        <lane id=":j_merge_start_29_0_0" index="0" speed="13.89" length="65.15" width="3.66" shape="8202.24,668.61 8267.34,671.15"/>
    </edge>
    <edge id=":j_merge_start_29_1" function="internal">
        <lane id=":j_merge_start_29_1_0" index="0" speed="13.89" length="65.13" width="3.66" shape="8202.12,672.36 8267.20,674.81"/>
        <lane id=":j_merge_start_29_1_1" index="1" speed="13.89" length="65.13" width="3.66" shape="8201.96,676.02 8267.05,678.47"/>
    </edge>
    <edge id=":junction_86_0" function="internal">
        <lane id=":junction_86_0_0" index="0" speed="13.89" length="61.05" width="3.66" shape="6679.59,609.49 6740.64,608.28"/>
    </edge>
    <edge id=":junction_86_1" function="internal">
        <lane id=":junction_86_1_0" index="0" speed="13.89" length="61.70" width="3.66" shape="6679.59,609.49 6741.23,612.03"/>
        <lane id=":junction_86_1_1" index="1" speed="13.89" length="61.70" width="3.66" shape="6679.43,613.15 6741.09,615.69"/>
    </edge>
    <edge id=":node_441_end_0" function="internal">
        <lane id=":node_441_end_0_0" index="0" speed="13.89" length="0.30" width="3.66" shape="1150.43,0.07 1150.73,0.08"/>
        <lane id=":node_441_end_0_1" index="1" speed="13.89" length="0.30" width="3.66" shape="1150.41,3.73 1150.71,3.74"/>
    </edge>
    <edge id=":node_441_start_0" function="internal">
        <lane id=":node_441_start_0_0" index="0" speed="13.89" length="3.00" width="3.66" shape="1009.00,-0.63 1012.00,-0.62"/>
        <lane id=":node_441_start_0_1" index="1" speed="13.89" length="3.00" width="3.66" shape="1008.98,3.03 1011.98,3.04"/>
    </edge>
    <edge id=":node_442_end_0" function="internal">
        <lane id=":node_442_end_0_0" index="0" speed="13.89" length="3.00" width="3.66" shape="1325.48,0.94 1328.48,0.95"/>
        <lane id=":node_442_end_0_1" index="1" speed="13.89" length="3.00" width="3.66" shape="1325.47,4.60 1328.47,4.61"/>
    </edge>
    <edge id=":node_443_start_0" function="internal">
        <lane id=":node_443_start_0_0" index="0" speed="13.89" length="3.00" width="3.66" shape="135.52,-4.85 138.52,-4.84"/>
        <lane id=":node_443_start_0_1" index="1" speed="13.89" length="3.00" width="3.66" shape="135.51,-1.19 138.51,-1.18"/>
    </edge>
    <edge id=":node_455_end_0" function="internal">
        <lane id=":node_455_end_0_0" index="0" speed="13.89" length="0.30" width="3.66" shape="7748.42,653.30 7748.71,653.32"/>
        <lane id=":node_455_end_0_1" index="1" speed="13.89" length="0.30" width="3.66" shape="7748.26,656.96 7748.57,656.97"/>
    </edge>
    <edge id=":node_455_start_0" function="internal">
        <lane id=":node_455_start_0_0" index="0" speed="13.89" length="0.30" width="3.66" shape="7676.69,650.50 7676.99,650.52"/>
        <lane id=":node_455_start_0_1" index="1" speed="13.89" length="0.30" width="3.66" shape="7676.53,654.16 7676.83,654.17"/>
    </edge>
    <edge id=":node_456_end_0" function="internal">
        <lane id=":node_456_end_0_0" index="0" speed="13.89" length="0.30" width="3.66" shape="7990.55,663.62 7990.85,663.64"/>
        <lane id=":node_456_end_0_1" index="1" speed="13.89" length="0.30" width="3.66" shape="7990.39,667.28 7990.69,667.29"/>
    </edge>
    <edge id=":node_457_end_0" function="internal">
        <lane id=":node_457_end_0_0" index="0" speed="13.89" length="3.00" width="3.66" shape="8089.44,667.82 8092.44,667.94"/>
        <lane id=":node_457_end_0_1" index="1" speed="13.89" length="3.00" width="3.66" shape="8089.29,671.47 8092.29,671.60"/>
    </edge>
    <edge id=":node_458_end_0" function="internal">
        <lane id=":node_458_end_0_0" index="0" speed="13.89" length="0.30" width="3.66" shape="7585.88,646.86 7586.18,646.88"/>
        <lane id=":node_458_end_0_1" index="1" speed="13.89" length="0.30" width="3.66" shape="7585.73,650.52 7586.03,650.53"/>
    </edge>
    <edge id=":node_458_start_0" function="internal">
        <lane id=":node_458_start_0_0" index="0" speed="13.89" length="3.00" width="3.66" shape="6826.27,615.57 6829.28,615.70"/>
        <lane id=":node_458_start_0_1" index="1" speed="13.89" length="3.00" width="3.66" shape="6826.12,619.22 6829.12,619.35"/>
    </edge>
    <edge id=":node_461_start_0" function="internal">
        <lane id=":node_461_start_0_0" index="0" speed="13.89" length="0.30" width="3.66" shape="2557.66,219.28 2557.95,219.37"/>
        <lane id=":node_461_start_0_1" index="1" speed="13.89" length="0.30" width="3.66" shape="2556.63,222.80 2556.92,222.88"/>
    </edge>
    <edge id=":node_811_end_0" function="internal">
        <lane id=":node_811_end_0_0" index="0" speed="13.89" length="0.30" width="3.66" shape="2523.72,209.29 2524.01,209.37"/>
        <lane id=":node_811_end_0_1" index="1" speed="13.89" length="0.30" width="3.66" shape="2522.68,212.80 2522.97,212.88"/>
    </edge>

    <edge id="441.0" from="node_441_start" to="node_441_end" priority="-1" type="town" shape="1010.47,4.86 1018.79,4.91 1067.24,5.12 1115.56,5.38 1150.55,5.56">
        <lane id="441.0_0" index="0" speed="13.89" length="138.43" width="3.66" shape="1012.00,-0.62 1018.82,-0.58 1067.27,-0.37 1115.59,-0.11 1150.43,0.07"/>
        <lane id="441.0_1" index="1" speed="13.89" length="138.43" width="3.66" shape="1011.98,3.04 1018.80,3.08 1067.25,3.29 1115.57,3.55 1150.41,3.73"/>
    </edge>
    <edge id="442.0" from="node_441_end" to="node_442_end" priority="-1" type="town" shape="1150.55,5.56 1200.96,5.80 1260.61,6.09 1297.12,6.31 1326.96,6.43">
        <lane id="442.0_0" index="0" speed="13.89" length="174.76" width="3.66" shape="1150.73,0.08 1200.99,0.31 1260.64,0.60 1297.15,0.82 1325.48,0.94"/>
        <lane id="442.0_1" index="1" speed="13.89" length="174.76" width="3.66" shape="1150.71,3.74 1200.97,3.97 1260.62,4.26 1297.13,4.48 1325.47,4.60"/>
    </edge>
    <edge id="443.0" from="node_443_start" to="node_441_start" priority="-1" type="town" shape="137.00,0.64 161.51,0.74 221.45,0.95 269.83,1.18 317.64,1.43 366.44,1.64 415.32,1.96 510.97,2.36 607.27,2.84 752.77,3.59 861.26,4.11 921.76,4.41 1010.47,4.86">
        <lane id="443.0_0" index="0" disallow="all" speed="13.89" length="870.49" width="3.66" shape="138.54,-8.50 161.54,-8.41 221.49,-8.20 269.88,-7.96 317.68,-7.71 366.49,-7.50 415.37,-7.18 511.01,-6.78 607.32,-6.30 752.82,-5.55 861.30,-5.03 921.81,-4.73 1009.02,-4.29" type="shoulder"/>
        <lane id="443.0_1" index="1" speed="13.89" length="870.49" width="3.66" shape="138.52,-4.84 161.53,-4.75 221.47,-4.54 269.86,-4.31 317.67,-4.06 366.47,-3.85 415.35,-3.53 511.00,-3.13 607.30,-2.65 752.80,-1.90 861.29,-1.38 921.79,-1.08 1009.00,-0.63"/>
        <lane id="443.0_2" index="2" speed="13.89" length="870.49" width="3.66" shape="138.51,-1.18 161.52,-1.09 221.46,-0.88 269.84,-0.65 317.65,-0.40 366.45,-0.19 415.33,0.13 510.98,0.53 607.28,1.01 752.78,1.76 861.27,2.28 921.77,2.58 1008.98,3.03"/>
    </edge>
    <edge id="447.0" from="junction_85" to="node_443_start" priority="-1" type="town" shape="0.00,0.00 88.90,0.43 137.00,0.64">
        <lane id="447.0_0" index="0" speed="13.89" length="135.50" width="3.66" shape="0.03,-5.49 88.93,-5.06 135.52,-4.85"/>
        <lane id="447.0_1" index="1" speed="13.89" length="135.50" width="3.66" shape="0.01,-1.83 88.91,-1.40 135.51,-1.19"/>
    </edge>
    <edge id="453.0" from="node_453_start" to="j_merge_start_29" priority="-1" type="town" shape="7900.65,623.56 7917.92,626.38 7975.39,636.93 8006.26,642.65 8043.80,649.48 8065.35,653.59 8080.03,656.08 8102.97,659.96 8118.39,662.13 8135.93,664.48 8152.42,666.26 8162.84,667.30 8175.83,668.45 8189.49,669.55 8202.08,670.43">
        <lane id="453.0_0" index="0" speed="13.89" length="305.13" width="3.66" shape="7900.94,621.76 7918.23,624.58 7975.72,635.14 8006.59,640.85 8044.14,647.69 8065.67,651.79 8080.34,654.28 8103.25,658.16 8118.64,660.32 8136.15,662.67 8152.61,664.44 8163.01,665.48 8175.98,666.63 8189.63,667.73 8202.24,668.61"/>
    </edge>
    <edge id="455.0" from="node_455_start" to="node_455_end" priority="-1" type="town" shape="7676.60,655.99 7678.48,656.07 7690.92,656.54 7702.56,657.01 7709.31,657.28 7722.99,657.82 7733.87,658.24 7746.18,658.70 7748.34,658.79">
        <lane id="455.0_0" index="0" disallow="all" speed="13.89" length="71.48" width="3.66" shape="7677.14,646.86 7678.83,646.93 7691.28,647.40 7702.93,647.87 7709.67,648.14 7723.35,648.68 7734.22,649.10 7746.53,649.56 7748.57,649.65" type="shoulder"/>
        <lane id="455.0_1" index="1" speed="13.89" length="71.48" width="3.66" shape="7676.99,650.52 7678.69,650.59 7691.13,651.06 7702.78,651.53 7709.53,651.80 7723.20,652.34 7734.08,652.76 7746.39,653.22 7748.42,653.30"/>
        <lane id="455.0_2" index="2" speed="13.89" length="71.48" width="3.66" shape="7676.83,654.17 7678.55,654.25 7690.99,654.72 7702.63,655.19 7709.38,655.46 7723.06,656.00 7733.94,656.42 7746.25,656.88 7748.26,656.96"/>
    </edge>
    <edge id="456.0" from="node_455_end" to="node_456_end" priority="-1" type="town" shape="7748.34,658.79 7757.89,659.17 7772.46,659.74 7789.26,660.41 7805.43,661.08 7823.57,661.86 7839.05,662.51 7855.42,663.22 7871.85,663.97 7880.39,664.34 7890.19,664.73 7901.77,665.27 7913.25,665.78 7922.04,666.16 7932.91,666.63 7943.39,667.08 7954.48,667.51 7966.64,668.04 7979.04,668.62 7990.46,669.11">
        <lane id="456.0_0" index="0" disallow="all" speed="13.89" length="242.06" width="3.66" shape="7748.86,649.66 7758.25,650.03 7772.82,650.60 7789.63,651.27 7805.82,651.94 7823.96,652.72 7839.44,653.37 7855.83,654.08 7872.26,654.83 7880.77,655.20 7890.59,655.59 7902.19,656.13 7913.65,656.64 7922.44,657.02 7933.30,657.49 7943.76,657.94 7954.86,658.37 7967.05,658.90 7979.45,659.48 7990.70,659.97" type="shoulder"/>
        <lane id="456.0_1" index="1" speed="13.89" length="242.06" width="3.66" shape="7748.71,653.32 7758.11,653.69 7772.68,654.26 7789.48,654.93 7805.66,655.60 7823.80,656.38 7839.28,657.03 7855.66,657.74 7872.10,658.49 7880.62,658.86 7890.43,659.25 7902.02,659.79 7913.49,660.30 7922.28,660.68 7933.15,661.15 7943.61,661.60 7954.71,662.03 7966.89,662.56 7979.29,663.14 7990.55,663.62"/>
        <lane id="456.0_2" index="2" speed="13.89" length="242.06" width="3.66" shape="7748.57,656.97 7757.96,657.35 7772.53,657.92 7789.33,658.59 7805.51,659.26 7823.65,660.04 7839.13,660.69 7855.50,661.40 7871.93,662.15 7880.47,662.52 7890.27,662.91 7901.85,663.45 7913.33,663.96 7922.12,664.34 7932.99,664.81 7943.46,665.26 7954.56,665.69 7966.72,666.22 7979.12,666.80 7990.39,667.28"/>
    </edge>
    <edge id="457.0" from="node_456_end" to="node_457_end" priority="-1" type="town" shape="7990.46,669.11 7999.82,669.52 8010.54,670.00 8020.48,670.41 8032.42,670.96 8047.43,671.60 8060.79,672.16 8074.47,672.70 8086.51,673.18 8090.71,673.36">
        <lane id="457.0_0" index="0" disallow="all" speed="13.89" length="98.68" width="3.66" shape="7991.01,659.98 8000.23,660.38 8010.93,660.86 8020.88,661.27 8032.82,661.82 8047.82,662.46 8061.16,663.02 8074.83,663.56 8086.88,664.04 8089.60,664.16" type="shoulder"/>
        <lane id="457.0_1" index="1" speed="13.89" length="98.68" width="3.66" shape="7990.85,663.64 8000.06,664.04 8010.78,664.52 8020.72,664.93 8032.66,665.48 8047.66,666.12 8061.01,666.68 8074.69,667.22 8086.73,667.70 8089.44,667.82"/>
        <lane id="457.0_2" index="2" speed="13.89" length="98.68" width="3.66" shape="7990.69,667.29 7999.90,667.70 8010.62,668.18 8020.56,668.59 8032.50,669.14 8047.51,669.78 8060.86,670.34 8074.54,670.88 8086.58,671.36 8089.29,671.47"/>
    </edge>
    <edge id="458.0" from="node_458_start" to="node_458_end" priority="-1" type="town" shape="6827.54,621.11 6832.11,621.31 6849.47,622.00 6865.22,622.65 6883.23,623.36 6898.19,623.96 6916.03,624.68 6934.39,625.44 6952.42,626.17 6971.58,626.95 6990.98,627.74 7009.99,628.52 7029.15,629.30 7047.58,630.03 7067.48,630.86 7087.21,631.67 7110.21,632.62 7130.58,633.45 7147.24,634.16 7165.53,634.91 7180.46,635.51 7196.96,636.21 7214.77,636.95 7230.89,637.60 7248.83,638.32 7266.46,639.04 7286.68,639.90 7306.90,640.67 7323.52,641.36 7341.50,642.08 7357.56,642.72 7369.35,643.23 7381.74,643.72 7396.10,644.33 7412.13,644.97 7427.43,645.58 7445.52,646.32 7462.32,646.99 7477.32,647.62 7491.58,648.22 7509.38,648.95 7525.91,649.67 7541.13,650.38 7557.12,651.06 7577.05,651.98 7585.80,652.35">
        <lane id="458.0_0" index="0" disallow="all" speed="13.89" length="757.25" width="3.66" shape="6829.44,612.04 6832.48,612.17 6849.84,612.86 6865.59,613.51 6883.59,614.22 6898.56,614.82 6916.40,615.54 6934.76,616.30 6952.79,617.03 6971.95,617.81 6991.35,618.60 7010.36,619.38 7029.52,620.16 7047.95,620.89 7067.86,621.72 7087.59,622.53 7110.59,623.48 7130.96,624.31 7147.62,625.02 7165.90,625.77 7180.84,626.37 7197.34,627.07 7215.14,627.81 7231.26,628.46 7249.20,629.18 7266.84,629.90 7287.05,630.76 7307.26,631.53 7323.89,632.22 7341.87,632.94 7357.94,633.58 7369.73,634.09 7382.12,634.58 7396.48,635.19 7412.49,635.83 7427.80,636.44 7445.89,637.18 7462.69,637.85 7477.70,638.48 7491.96,639.08 7509.77,639.81 7526.32,640.53 7541.54,641.24 7557.53,641.92 7577.46,642.84 7586.04,643.21" type="shoulder"/>
        <lane id="458.0_1" index="1" speed="13.89" length="757.25" width="3.66" shape="6829.28,615.70 6832.33,615.83 6849.69,616.52 6865.44,617.17 6883.45,617.88 6898.41,618.48 6916.25,619.20 6934.61,619.96 6952.64,620.69 6971.80,621.47 6991.20,622.26 7010.21,623.04 7029.37,623.82 7047.80,624.55 7067.71,625.38 7087.44,626.19 7110.44,627.14 7130.81,627.97 7147.47,628.68 7165.75,629.43 7180.69,630.03 7197.19,630.73 7214.99,631.47 7231.11,632.12 7249.05,632.84 7266.69,633.56 7286.90,634.42 7307.12,635.19 7323.74,635.88 7341.72,636.60 7357.79,637.24 7369.58,637.75 7381.97,638.24 7396.33,638.85 7412.35,639.49 7427.65,640.10 7445.74,640.84 7462.54,641.51 7477.55,642.14 7491.81,642.74 7509.61,643.47 7526.16,644.19 7541.37,644.90 7557.36,645.58 7577.30,646.50 7585.88,646.86"/>
        <lane id="458.0_2" index="2" speed="13.89" length="757.25" width="3.66" shape="6829.12,619.35 6832.18,619.49 6849.54,620.18 6865.29,620.83 6883.30,621.54 6898.26,622.14 6916.10,622.86 6934.46,623.62 6952.49,624.35 6971.65,625.13 6991.05,625.92 7010.06,626.70 7029.22,627.48 7047.65,628.21 7067.56,629.04 7087.29,629.85 7110.29,630.80 7130.66,631.63 7147.32,632.34 7165.60,633.09 7180.54,633.69 7197.04,634.39 7214.84,635.13 7230.96,635.78 7248.90,636.50 7266.54,637.22 7286.75,638.08 7306.97,638.85 7323.59,639.54 7341.57,640.26 7357.64,640.90 7369.43,641.41 7381.82,641.90 7396.18,642.51 7412.20,643.15 7427.50,643.76 7445.59,644.50 7462.39,645.17 7477.40,645.80 7491.66,646.40 7509.46,647.13 7525.99,647.85 7541.21,648.56 7557.20,649.24 7577.13,650.16 7585.73,650.52"/>
    </edge>
    <edge id="459.0" from="node_458_end" to="node_455_start" priority="-1" type="town" shape="7585.80,652.35 7595.34,652.75 7613.62,653.45 7632.39,654.22 7649.95,654.91 7669.35,655.67 7676.60,655.99">
        <lane id="459.0_0" index="0" disallow="all" speed="13.89" length="90.58" width="3.66" shape="7586.33,643.22 7595.70,643.61 7613.98,644.31 7632.76,645.08 7650.31,645.77 7669.72,646.53 7676.85,646.85" type="shoulder"/>
        <lane id="459.0_1" index="1" speed="13.89" length="90.58" width="3.66" shape="7586.18,646.88 7595.56,647.27 7613.84,647.97 7632.61,648.74 7650.17,649.43 7669.57,650.19 7676.69,650.50"/>
        <lane id="459.0_2" index="2" speed="13.89" length="90.58" width="3.66" shape="7586.03,650.53 7595.41,650.93 7613.69,651.63 7632.46,652.40 7650.02,653.09 7669.42,653.85 7676.53,654.16"/>
    </edge>
    <edge id="460.0" from="junction_86" to="node_460_end" priority="-1" type="town" shape="6740.71,610.10 6751.46,609.66 6764.92,609.09 6780.74,608.42 6794.82,607.78 6815.43,606.83 6837.24,605.83 6856.83,604.78 6876.24,603.82 6892.78,602.87 6910.52,601.58 6923.67,600.39 6933.93,599.27 6945.80,597.86 6960.59,595.88 6973.29,594.01 6987.13,591.62 7006.86,588.22">
        <lane id="460.0_0" index="0" speed="13.89" length="267.10" width="3.66" shape="6740.64,608.28 6751.38,607.84 6764.84,607.27 6780.66,606.60 6794.74,605.96 6815.35,605.01 6837.15,604.01 6856.74,602.96 6876.14,602.00 6892.66,601.05 6910.37,599.76 6923.49,598.57 6933.72,597.46 6945.57,596.05 6960.34,594.07 6973.00,592.21 6986.82,589.82 7006.55,586.42"/>
    </edge>
    <edge id="461.0" from="node_461_start" to="junction_86" priority="-1" type="town" shape="2556.26,224.59 2569.27,228.39 2591.74,234.96 2605.33,238.94 2616.91,242.33 2628.71,245.78 2638.31,248.58 2649.33,251.83 2659.94,254.93 2671.88,258.41 2683.41,261.81 2694.52,265.02 2705.06,268.11 2716.44,271.45 2725.55,274.13 2735.53,277.04 2746.92,280.36 2757.89,283.56 2771.36,287.52 2782.57,290.84 2791.99,293.61 2801.68,296.44 2810.85,299.16 2819.98,301.82 2832.86,305.62 2844.54,309.07 2857.67,312.90 2870.36,316.63 2880.97,319.71 2894.63,323.73 2908.50,327.78 2920.05,331.19 2932.10,334.70 2944.05,338.20 2955.14,341.44 2966.34,344.71 2977.60,348.04 2986.97,350.75 2998.60,354.14 3008.84,357.12 3018.88,360.06 3029.79,363.26 3042.73,367.04 3054.71,370.54 3066.54,374.01 3075.48,376.59 3085.48,379.50 3094.82,382.19 3100.46,383.83 3105.28,385.24 3110.92,386.86 3121.59,389.96 3129.65,392.33 3139.34,395.18 3149.55,398.15 3159.67,401.06 3170.08,404.07 3183.65,407.93 3197.22,411.78 3207.55,414.65 3220.51,418.20 3234.41,421.92 3248.39,425.50 3260.21,428.46 3272.40,431.39 3287.07,434.82 3295.22,436.63 3303.79,438.56 3310.96,440.07 3320.52,442.04 3330.60,444.03 3340.93,446.01 3351.30,447.90 3360.33,449.50 3369.76,451.14 3380.84,453.02 3390.49,454.54 3403.38,456.63 3411.87,457.97 3422.71,459.67 3433.69,461.40 3446.60,463.43 3457.28,465.08 3466.61,466.53 3475.38,467.93 3490.01,470.23 3505.28,472.61 3514.36,474.02 3524.88,475.68 3535.16,477.31 3543.12,478.55 3554.33,480.31 3566.06,482.14 3572.63,483.15 3588.72,485.68 3604.64,488.17 3617.99,490.24 3632.27,492.45 3648.44,494.99 3667.82,498.05 3691.46,501.75 3715.50,505.50 3735.11,508.56 3746.55,510.36 3756.01,511.81 3766.38,513.42 3776.76,515.01 3787.48,516.69 3801.54,518.86 3812.85,520.63 3827.80,522.98 3840.54,524.99 3854.64,527.19 3869.06,529.46 3893.30,533.29 3906.79,535.42 3921.11,537.69 3937.04,540.20 3950.69,542.30 3963.17,544.22 3976.99,546.22 3990.55,548.14 3998.79,549.26 4009.62,550.77 4022.14,552.41 4034.06,553.96 4045.90,555.49 4055.93,556.71 4069.18,558.21 4078.60,559.21 4092.92,560.59 4104.72,561.68 4118.53,562.86 4131.26,563.82 4140.77,564.46 4145.03,564.75 4151.48,565.16 4159.89,565.63 4168.96,566.12 4179.50,566.63 4190.44,567.08 4203.22,567.54 4214.38,567.87 4226.70,568.12 4239.67,568.40 4253.68,568.60 4266.33,568.71 4277.12,568.76 4289.48,568.79 4300.67,568.79 4315.15,568.80 4327.85,568.85 4341.40,568.87 4362.05,568.94 4376.71,568.94 4391.09,568.96 4410.43,568.94 4428.93,568.93 4446.82,568.94 4461.42,568.94 4473.21,568.97 4484.78,568.94 4497.24,568.98 4512.86,569.00 4527.86,569.05 4548.11,569.07 4564.72,569.09 4581.53,569.13 4599.12,569.12 4617.98,569.16 4634.76,569.18 4653.25,569.26 4666.07,569.28 4676.61,569.32 4686.72,569.34 4703.52,569.39 4713.67,569.45 4723.16,569.43 4733.36,569.53 4746.54,569.55 4757.64,569.58 4769.27,569.62 4781.00,569.65 4792.61,569.69 4804.52,569.70 4817.11,569.72 4828.87,569.72 4839.59,569.75 4852.57,569.76 4861.73,569.78 4872.40,569.77 4885.11,569.80 4898.45,569.79 4912.84,569.82 4930.66,569.92 4948.48,569.95 4966.52,570.01 4978.86,570.04 4991.45,570.08 5005.58,570.09 5021.55,570.15 5038.83,570.21 5050.95,570.24 5070.35,570.32 5090.78,570.36 5111.08,570.41 5132.06,570.44 5152.69,570.47 5173.36,570.46 5192.69,570.51 5213.02,570.54 5229.07,570.57 5242.81,570.62 5258.02,570.65 5281.49,570.73 5298.27,570.77 5315.60,570.78 5332.31,570.84 5348.37,570.88 5364.44,570.91 5379.76,570.91 5396.80,570.94 5414.50,570.93 5431.75,570.98 5445.75,570.96 5460.74,570.99 5476.28,571.03 5489.53,571.07 5505.35,571.11 5520.27,571.15 5534.75,571.26 5550.60,571.37 5566.06,571.48 5581.97,571.63 5597.65,571.81 5613.37,572.08 5629.15,572.41 5645.11,572.81 5662.40,573.32 5678.55,573.81 5694.50,574.41 5710.36,574.98 5728.26,575.73 5748.36,576.50 5764.36,577.18 5781.05,577.86 5797.30,578.56 5813.25,579.20 5829.45,579.87 5845.67,580.54 5861.67,581.18 5876.88,581.81 5888.07,582.31 5901.53,582.87 5914.13,583.38 5927.44,583.94 5940.97,584.52 5954.75,585.07 5966.35,585.56 5978.87,586.09 5990.60,586.59 6003.37,587.09 6015.44,587.60 6028.35,588.13 6042.37,588.69 6058.82,589.38 6072.89,589.96 6087.45,590.55 6095.85,590.89 6107.61,591.38 6116.92,591.77 6128.72,592.22 6139.08,592.66 6148.99,593.06 6158.50,593.47 6168.90,593.86 6178.90,594.27 6190.52,594.75 6202.85,595.26 6214.65,595.74 6224.00,596.14 6234.72,596.57 6246.94,597.06 6258.86,597.58 6271.64,598.08 6283.32,598.55 6296.88,599.12 6309.99,599.68 6323.81,600.24 6338.30,600.83 6350.80,601.38 6362.81,601.89 6377.42,602.45 6390.26,603.00 6404.16,603.61 6416.44,604.07 6431.39,604.75 6443.51,605.26 6454.77,605.71 6465.17,606.14 6478.70,606.68 6494.08,607.33 6508.65,607.92 6522.24,608.51 6535.83,609.08 6551.27,609.74 6563.42,610.27 6576.45,610.80 6590.02,611.36 6604.18,611.93 6617.89,612.48 6631.48,613.03 6645.00,613.59 6658.59,614.16 6673.24,614.70 6679.35,614.97">
        <lane id="461.0_0" index="0" disallow="all" speed="13.89" length="4162.35" width="3.66" shape="2558.97,215.85 2571.84,219.61 2594.31,226.18 2607.90,230.16 2619.48,233.55 2631.28,237.00 2640.89,239.81 2651.91,243.06 2662.50,246.15 2674.45,249.63 2685.97,253.03 2697.08,256.24 2707.64,259.33 2719.02,262.68 2728.12,265.35 2738.09,268.26 2749.48,271.58 2760.46,274.78 2773.95,278.75 2785.16,282.07 2794.56,284.83 2804.26,287.67 2813.43,290.39 2822.56,293.05 2835.45,296.85 2847.12,300.30 2860.24,304.12 2872.93,307.85 2883.54,310.93 2897.20,314.95 2911.08,319.01 2922.62,322.41 2934.67,325.92 2946.62,329.42 2957.71,332.66 2968.92,335.94 2980.17,339.26 2989.52,341.97 3001.16,345.36 3011.40,348.34 3021.45,351.28 3032.36,354.48 3045.30,358.26 3057.28,361.76 3069.10,365.23 3078.03,367.81 3088.02,370.72 3097.36,373.40 3103.02,375.05 3107.83,376.46 3113.46,378.08 3124.16,381.18 3132.23,383.56 3141.91,386.40 3152.09,389.37 3162.21,392.27 3172.60,395.28 3186.15,399.13 3199.70,402.98 3209.98,405.83 3222.90,409.37 3236.73,413.07 3250.64,416.64 3262.39,419.58 3274.51,422.49 3289.12,425.91 3297.22,427.71 3305.74,429.62 3312.82,431.12 3322.33,433.08 3332.35,435.05 3342.61,437.02 3352.92,438.90 3361.91,440.49 3371.31,442.13 3382.32,443.99 3391.94,445.51 3404.83,447.60 3413.29,448.94 3424.13,450.64 3435.11,452.37 3448.01,454.39 3458.68,456.04 3468.03,457.50 3476.81,458.90 3491.42,461.19 3506.69,463.57 3515.78,464.99 3526.31,466.65 3536.58,468.28 3544.53,469.51 3555.74,471.27 3567.46,473.10 3574.04,474.11 3590.14,476.65 3606.05,479.13 3619.39,481.20 3633.68,483.41 3649.86,485.96 3669.24,489.02 3692.87,492.71 3716.91,496.46 3736.52,499.52 3747.96,501.32 3757.41,502.77 3767.77,504.38 3778.16,505.97 3788.88,507.65 3802.94,509.82 3814.27,511.60 3829.22,513.95 3841.96,515.96 3856.06,518.16 3870.49,520.43 3894.73,524.26 3908.22,526.39 3922.54,528.66 3938.45,531.16 3952.08,533.26 3964.52,535.18 3978.29,537.17 3991.81,539.08 4000.04,540.20 4010.85,541.71 4023.32,543.34 4035.24,544.89 4047.04,546.42 4057.00,547.63 4070.18,549.12 4079.52,550.11 4093.78,551.49 4105.53,552.57 4119.26,553.74 4131.92,554.70 4141.39,555.34 4145.63,555.62 4152.02,556.03 4160.39,556.50 4169.43,556.99 4179.91,557.49 4190.79,557.94 4203.52,558.40 4214.61,558.73 4226.89,558.98 4239.83,559.26 4253.79,559.46 4266.39,559.57 4277.15,559.61 4289.49,559.64 4300.67,559.64 4315.17,559.65 4327.87,559.70 4341.42,559.72 4362.07,559.79 4376.72,559.79 4391.09,559.81 4410.42,559.79 4428.93,559.78 4446.82,559.79 4461.43,559.79 4473.21,559.82 4484.78,559.79 4497.26,559.83 4512.88,559.85 4527.88,559.90 4548.12,559.92 4564.74,559.94 4581.54,559.98 4599.13,559.97 4618.00,560.01 4634.79,560.03 4653.28,560.11 4666.09,560.13 4676.64,560.17 4686.74,560.19 4703.56,560.24 4713.69,560.30 4723.20,560.28 4733.41,560.38 4746.56,560.40 4757.67,560.43 4769.30,560.47 4781.03,560.50 4792.63,560.54 4804.53,560.55 4817.12,560.57 4828.88,560.57 4839.61,560.60 4852.58,560.61 4861.73,560.63 4872.41,560.62 4885.12,560.65 4898.46,560.64 4912.88,560.67 4930.69,560.77 4948.50,560.80 4966.55,560.86 4978.89,560.89 4991.47,560.93 5005.60,560.94 5021.58,561.00 5038.86,561.06 5050.98,561.09 5070.38,561.17 5090.80,561.21 5111.10,561.26 5132.07,561.29 5152.69,561.32 5173.37,561.31 5192.71,561.36 5213.04,561.39 5229.09,561.42 5242.84,561.47 5258.05,561.50 5281.52,561.58 5298.28,561.62 5315.62,561.63 5332.34,561.69 5348.39,561.73 5364.45,561.76 5379.77,561.76 5396.81,561.79 5414.51,561.78 5431.76,561.83 5445.75,561.81 5460.76,561.84 5476.31,561.88 5489.56,561.92 5505.37,561.96 5520.32,562.01 5534.82,562.12 5550.66,562.23 5566.14,562.34 5582.07,562.49 5597.78,562.67 5613.54,562.94 5629.36,563.27 5645.36,563.67 5662.67,564.18 5678.86,564.67 5694.84,565.27 5710.72,565.84 5728.63,566.59 5748.73,567.36 5764.74,568.04 5781.43,568.72 5797.68,569.42 5813.62,570.06 5829.83,570.73 5846.04,571.40 5862.04,572.04 5877.27,572.67 5888.46,573.17 5901.91,573.73 5914.51,574.24 5927.83,574.80 5941.35,575.38 5955.12,575.93 5966.74,576.42 5979.26,576.95 5990.97,577.45 6003.74,577.95 6015.82,578.46 6028.72,578.99 6042.75,579.55 6059.20,580.24 6073.26,580.82 6087.82,581.41 6096.23,581.75 6107.99,582.24 6117.28,582.63 6129.09,583.08 6139.46,583.52 6149.37,583.92 6158.87,584.33 6169.26,584.72 6179.28,585.13 6190.90,585.61 6203.23,586.12 6215.03,586.60 6224.38,587.00 6235.09,587.43 6247.32,587.92 6259.24,588.44 6272.00,588.94 6283.70,589.41 6297.27,589.98 6310.37,590.54 6324.18,591.10 6338.69,591.69 6351.20,592.24 6363.18,592.75 6377.79,593.31 6390.66,593.86 6404.53,594.47 6416.82,594.93 6431.79,595.61 6443.89,596.12 6455.14,596.57 6465.54,597.00 6479.08,597.54 6494.46,598.19 6509.03,598.78 6522.63,599.37 6536.22,599.94 6551.66,600.60 6563.80,601.13 6576.82,601.66 6590.39,602.22 6604.55,602.79 6618.26,603.34 6631.85,603.89 6645.38,604.45 6658.95,605.02 6673.60,605.56 6679.75,605.83" type="shoulder"/>