<?xml version='1.0' encoding='utf-8'?>
<connections>
    <connection from="462.0" to="merge_zone_29" fromLane="0" toLane="1" />
    <connection from="462.0" to="merge_zone_29" fromLane="1" toLane="2" />
    <connection from="merge_zone_29" to="464.0" fromLane="1" toLane="1" />
    <connection from="merge_zone_29" to="464.0" fromLane="2" toLane="2" />
    <connection from="453.0" to="merge_zone_29" fromLane="0" toLane="0" />
    <connection from="merge_zone_29" to="464.0" fromLane="0" toLane="2" dir="r" state="m" />
    <connection from="461.0" to="460.0" fromLane="1" toLane="0" />
    <connection from="461.0" to="466.0" fromLane="1" toLane="0" />
    <connection from="461.0" to="466.0" fromLane="2" toLane="1" />
</connections>