<?xml version="1.0" encoding="UTF-8"?>

<!-- generated on 2025-10-19 17:35:16 by Eclipse SUMO netconvert Version 1.23.1
<netconvertConfiguration xmlns:xsi="http://www.w3.org/2001/XMLSchema-instance" xsi:noNamespaceSchemaLocation="http://sumo.dlr.de/xsd/netconvertConfiguration.xsd">

    <input>
        <node-files value="/home/sdai/harry/TeraSim/jupiter/eb/jupiter_eb_tiles/tile_0032/tile_0032.nod.xml"/>
        <edge-files value="/home/sdai/harry/TeraSim/jupiter/eb/jupiter_eb_tiles/tile_0032/tile_0032.edg.xml"/>
        <connection-files value="/home/sdai/harry/TeraSim/jupiter/eb/jupiter_eb_tiles/tile_0032/tile_0032.con.xml"/>
    </input>

    <output>
        <output-file value="/home/sdai/harry/TeraSim/jupiter/eb/jupiter_eb_tiles/tile_0032/tile_0032.net.xml"/>
        <output.street-names value="true"/>
        <output.original-names value="true"/>
    </output>

    <processing>
        <geometry.remove value="false"/>
        <geometry.min-dist value="0.5"/>
        <edges.join value="false"/>
    </processing>

    <junctions>
        <no-internal-links value="false"/>
        <no-turnarounds value="true"/>
        <junctions.join value="true"/>
        <junctions.join-dist value="10"/>
        <junctions.corner-detail value="5"/>
        <junctions.internal-link-detail value="5"/>
        <junctions.limit-turn-speed value="5.5"/>
        <rectangular-lane-cut value="true"/>
        <check-lane-foes.all value="true"/>
    </junctions>

</netconvertConfiguration>
-->

<net version="1.20" junctionCornerDetail="5" junctionLinkDetail="5" rectangularLaneCut="true" limitTurnSpeed="5.50" checkLaneFoesAll="1" xmlns:xsi="http://www.w3.org/2001/XMLSchema-instance" xsi:noNamespaceSchemaLocation="http://sumo.dlr.de/xsd/net_file.xsd">

    <location netOffset="-611871.21,-3276640.18" convBoundary="0.00,0.00,8430.37,1661.06" origBoundary="0.00,0.00,620301.57,3278301.23" projParameter="!"/>

    <edge id=":j_merge_end_55_0" function="internal">
        <lane id=":j_merge_end_55_0_0" index="0" speed="13.89" length="48.91" width="3.66" shape="6337.66,926.83 6348.45,931.80 6359.46,938.29 6370.46,944.77 6381.26,949.73"/>
        <lane id=":j_merge_end_55_0_1" index="1" speed="13.89" length="48.91" width="3.66" shape="6336.45,930.29 6382.46,946.27"/>
        <lane id=":j_merge_end_55_0_2" index="2" speed="13.89" length="48.91" width="3.66" shape="6335.25,933.75 6381.26,949.73"/>
    </edge>
    <edge id=":j_merge_start_55_0" function="internal">
        <lane id=":j_merge_start_55_0_0" index="0" speed="13.89" length="51.26" width="3.66" shape="6126.53,853.54 6174.93,870.43"/>
    </edge>
    <edge id=":j_merge_start_55_1" function="internal">
        <lane id=":j_merge_start_55_1_0" index="0" speed="13.89" length="51.24" width="3.66" shape="6125.33,857.11 6173.73,873.89"/>
        <lane id=":j_merge_start_55_1_1" index="1" speed="13.89" length="51.24" width="3.66" shape="6124.13,860.57 6172.54,877.35"/>
    </edge>
    <edge id=":junction_19_0" function="internal">
        <lane id=":junction_19_0_0" index="0" speed="13.89" length="195.07" width="3.66" shape="1500.90,26.64 1695.93,30.48"/>
        <lane id=":junction_19_0_1" index="1" speed="13.89" length="195.07" width="3.66" shape="1500.83,30.29 1695.85,34.13"/>
    </edge>
    <edge id=":junction_20_0" function="internal">
        <lane id=":junction_20_0_0" index="0" speed="13.89" length="133.63" width="3.66" shape="7809.17,1440.37 7935.45,1484.07"/>
        <lane id=":junction_20_0_1" index="1" speed="13.89" length="133.63" width="3.66" shape="7807.97,1443.82 7934.26,1487.53"/>
    </edge>
    <edge id=":junction_21_0" function="internal">
        <lane id=":junction_21_0_0" index="0" speed="13.89" length="87.28" width="3.66" shape="4384.52,253.31 4466.99,281.94"/>
        <lane id=":junction_21_0_1" index="1" speed="13.89" length="87.28" width="3.66" shape="4383.34,256.77 4465.78,285.40"/>
    </edge>
    <edge id=":junction_74_0" function="internal">
        <lane id=":junction_74_0_0" index="0" speed="13.89" length="82.98" width="3.66" shape="673.76,10.69 756.70,8.34"/>
    </edge>
    <edge id=":junction_74_1" function="internal">
        <lane id=":junction_74_1_0" index="0" speed="13.89" length="83.00" width="3.66" shape="673.76,10.69 756.75,12.25"/>
        <lane id=":junction_74_1_1" index="1" speed="13.89" length="83.00" width="3.66" shape="673.70,14.34 756.68,15.91"/>
    </edge>
    <edge id=":junction_75_0" function="internal">
        <lane id=":junction_75_0_0" index="0" speed="13.89" length="96.36" width="3.66" shape="3247.49,60.69 3343.83,58.69"/>
    </edge>
    <edge id=":junction_75_1" function="internal">
        <lane id=":junction_75_1_0" index="0" speed="13.89" length="96.50" width="3.66" shape="3247.49,60.69 3343.98,62.54"/>
        <lane id=":junction_75_1_1" index="1" speed="13.89" length="96.50" width="3.66" shape="3247.42,64.34 3343.89,66.20"/>
    </edge>
    <edge id=":junction_76_0" function="internal">
        <lane id=":junction_76_0_0" index="0" speed="13.89" length="74.24" width="3.66" shape="5123.85,509.68 5140.29,514.81 5163.01,521.37 5183.98,527.21 5195.20,530.19"/>
    </edge>
    <edge id=":junction_76_1" function="internal">
        <lane id=":junction_76_1_0" index="0" speed="13.89" length="74.36" width="3.66" shape="5123.85,509.68 5194.07,534.13"/>
        <lane id=":junction_76_1_1" index="1" speed="13.89" length="74.36" width="3.66" shape="5122.65,513.14 5192.87,537.59"/>
    </edge>
    <edge id=":junction_77_0" function="internal">
        <lane id=":junction_77_0_0" index="0" speed="13.89" length="127.02" width="3.66" shape="6879.86,1118.40 6999.87,1159.99"/>
        <lane id=":junction_77_0_1" index="1" speed="13.89" length="127.02" width="3.66" shape="6878.66,1121.86 6998.67,1163.45"/>
    </edge>
    <edge id=":node_237_end_0" function="internal">
        <lane id=":node_237_end_0_0" index="0" speed="13.89" length="0.30" width="3.66" shape="1203.27,20.71 1203.57,20.72"/>
        <lane id=":node_237_end_0_1" index="1" speed="13.89" length="0.30" width="3.66" shape="1203.20,24.37 1203.50,24.38"/>
    </edge>
    <edge id=":node_237_start_0" function="internal">
        <lane id=":node_237_start_0_0" index="0" speed="13.89" length="0.30" width="3.66" shape="1136.66,19.46 1136.97,19.47"/>
        <lane id=":node_237_start_0_1" index="1" speed="13.89" length="0.30" width="3.66" shape="1136.61,23.12 1136.90,23.13"/>
    </edge>
    <edge id=":node_239_start_0" function="internal">
        <lane id=":node_239_start_0_0" index="0" speed="13.89" length="0.30" width="3.66" shape="1216.19,20.95 1216.49,20.96"/>
        <lane id=":node_239_start_0_1" index="1" speed="13.89" length="0.30" width="3.66" shape="1216.12,24.61 1216.42,24.62"/>
    </edge>
    <edge id=":node_248_end_0" function="internal">
        <lane id=":node_248_end_0_0" index="0" speed="13.89" length="3.00" width="3.66" shape="920.52,15.33 923.52,15.40"/>
        <lane id=":node_248_end_0_1" index="1" speed="13.89" length="3.00" width="3.66" shape="920.44,18.99 923.44,19.05"/>
    </edge>
    <edge id=":node_249_end_0" function="internal">
        <lane id=":node_249_end_0_0" index="0" speed="13.89" length="0.30" width="3.66" shape="1070.20,18.26 1070.50,18.27"/>
        <lane id=":node_249_end_0_1" index="1" speed="13.89" length="0.30" width="3.66" shape="1070.13,21.92 1070.43,21.93"/>
    </edge>
    <edge id=":node_267_start_0" function="internal">
        <lane id=":node_267_start_0_0" index="0" speed="13.89" length="8.05" width="3.66" shape="1962.25,35.32 1970.29,35.69"/>
    </edge>
    <edge id=":node_267_start_1" function="internal">
        <lane id=":node_267_start_1_0" index="0" speed="13.89" length="8.00" width="3.66" shape="1962.29,35.53 1970.29,35.69"/>
        <lane id=":node_267_start_1_1" index="1" speed="13.89" length="8.00" width="3.66" shape="1962.21,39.19 1970.22,39.35"/>
    </edge>
    <edge id=":node_269_end_0" function="internal">
        <lane id=":node_269_end_0_0" index="0" speed="13.89" length="3.00" width="3.66" shape="3521.52,66.32 3524.52,66.39"/>
        <lane id=":node_269_end_0_1" index="1" speed="13.89" length="3.00" width="3.66" shape="3521.42,69.98 3524.42,70.05"/>
    </edge>
    <edge id=":node_270_end_0" function="internal">
        <lane id=":node_270_end_0_0" index="0" speed="13.89" length="3.00" width="3.66" shape="1758.34,27.99 1761.34,28.04"/>
        <lane id=":node_270_end_0_1" index="1" speed="13.89" length="3.00" width="3.66" shape="1758.28,31.65 1761.28,31.70"/>
        <lane id=":node_270_end_0_2" index="2" speed="13.89" length="3.00" width="3.66" shape="1758.22,35.31 1761.21,35.36"/>
    </edge>
    <edge id=":node_271_end_0" function="internal">
        <lane id=":node_271_end_0_0" index="0" speed="13.89" length="3.34" width="3.66" shape="4610.90,327.94 4614.07,328.99"/>
    </edge>
    <edge id=":node_271_end_1" function="internal">
        <lane id=":node_271_end_1_0" index="0" speed="13.89" length="3.00" width="3.66" shape="4609.71,331.40 4612.54,332.38"/>
        <lane id=":node_271_end_1_1" index="1" speed="13.89" length="3.00" width="3.66" shape="4608.51,334.86 4611.34,335.84"/>
    </edge>
    <edge id=":node_271_start_0" function="internal">
        <lane id=":node_271_start_0_0" index="0" speed="13.89" length="0.30" width="3.66" shape="4531.50,300.45 4531.79,300.56"/>
        <lane id=":node_271_start_0_1" index="1" speed="13.89" length="0.30" width="3.66" shape="4530.30,303.91 4530.58,304.01"/>
        <lane id=":node_271_start_0_2" index="2" speed="13.89" length="0.30" width="3.66" shape="4529.10,307.37 4529.37,307.46"/>
    </edge>
    <edge id=":node_272_end_0" function="internal">
        <lane id=":node_272_end_0_0" index="0" speed="13.89" length="0.30" width="3.66" shape="7184.00,1223.77 7184.29,1223.87"/>
        <lane id=":node_272_end_0_1" index="1" speed="13.89" length="0.30" width="3.66" shape="7182.80,1227.23 7183.09,1227.32"/>
    </edge>
    <edge id=":node_272_start_0" function="internal">
        <lane id=":node_272_start_0_0" index="0" speed="13.89" length="0.30" width="3.66" shape="7145.45,1210.41 7145.73,1210.51"/>
        <lane id=":node_272_start_0_1" index="1" speed="13.89" length="0.30" width="3.66" shape="7144.25,1213.87 7144.54,1213.96"/>
    </edge>
    <edge id=":node_273_start_0" function="internal">
        <lane id=":node_273_start_0_0" index="0" speed="13.89" length="3.00" width="3.66" shape="5958.68,799.34 5961.51,800.32"/>
        <lane id=":node_273_start_0_1" index="1" speed="13.89" length="3.00" width="3.66" shape="5957.48,802.80 5960.31,803.78"/>
    </edge>
    <edge id=":node_274_start_0" function="internal">
        <lane id=":node_274_start_0_0" index="0" speed="13.89" length="3.30" width="3.66" shape="1854.16,29.84 1855.13,29.92 1855.78,30.08 1856.44,30.25 1857.41,30.36"/>
    </edge>
    <edge id=":node_274_start_1" function="internal">
        <lane id=":node_274_start_1_0" index="0" speed="13.89" length="3.00" width="3.66" shape="1854.09,33.50 1857.09,33.55"/>
        <lane id=":node_274_start_1_1" index="1" speed="13.89" length="3.00" width="3.66" shape="1854.03,37.16 1857.03,37.21"/>
    </edge>
    <edge id=":node_275_end_0" function="internal">
        <lane id=":node_275_end_0_0" index="0" speed="13.89" length="3.00" width="3.66" shape="8016.99,1508.43 8019.82,1509.42"/>
        <lane id=":node_275_end_0_1" index="1" speed="13.89" length="3.00" width="3.66" shape="8015.78,1511.89 8018.62,1512.87"/>
        <lane id=":node_275_end_0_2" index="2" speed="13.89" length="3.00" width="3.66" shape="8014.58,1515.34 8017.41,1516.33"/>
    </edge>
    <edge id=":node_277_end_0" function="internal">
        <lane id=":node_277_end_0_0" index="0" speed="13.89" length="8.08" width="3.66" shape="4706.50,364.85 4714.07,367.67"/>
    </edge>
    <edge id=":node_277_end_1" function="internal">
        <lane id=":node_277_end_1_0" index="0" speed="13.89" length="8.00" width="3.66" shape="4706.51,365.07 4714.07,367.67"/>
        <lane id=":node_277_end_1_1" index="1" speed="13.89" length="8.00" width="3.66" shape="4705.31,368.53 4712.88,371.13"/>
    </edge>
    <edge id=":node_280_start_0" function="internal">
        <lane id=":node_280_start_0_0" index="0" speed="13.89" length="0.30" width="3.66" shape="4923.49,440.42 4923.77,440.52"/>
        <lane id=":node_280_start_0_1" index="1" speed="13.89" length="0.30" width="3.66" shape="4922.29,443.88 4922.57,443.97"/>
    </edge>
    <edge id=":node_285_end_0" function="internal">
        <lane id=":node_285_end_0_0" index="0" speed="13.89" length="7.88" width="3.66" shape="6620.32,1028.58 6627.84,1030.96"/>
    </edge>
    <edge id=":node_285_end_1" function="internal">
        <lane id=":node_285_end_1_0" index="0" speed="13.89" length="8.11" width="3.66" shape="6620.32,1028.58 6627.99,1031.21"/>
        <lane id=":node_285_end_1_1" index="1" speed="13.89" length="8.11" width="3.66" shape="6619.14,1032.04 6626.80,1034.67"/>
    </edge>
    <edge id=":node_285_start_0" function="internal">
        <lane id=":node_285_start_0_0" index="0" speed="13.89" length="0.30" width="3.66" shape="6550.98,1004.64 6551.27,1004.74"/>
        <lane id=":node_285_start_0_1" index="1" speed="13.89" length="0.30" width="3.66" shape="6549.79,1008.11 6550.07,1008.20"/>
    </edge>
    <edge id=":node_289_end_0" function="internal">
        <lane id=":node_289_end_0_0" index="0" speed="13.89" length="3.00" width="3.66" shape="5261.41,557.58 5264.25,558.56"/>
        <lane id=":node_289_end_0_1" index="1" speed="13.89" length="3.00" width="3.66" shape="5260.21,561.03 5263.04,562.02"/>
    </edge>
    <edge id=":node_292_start_0" function="internal">
        <lane id=":node_292_start_0_0" index="0" speed="13.89" length="4.87" width="3.66" shape="6702.10,1056.89 6706.33,1054.48"/>
        <lane id=":node_292_start_0_1" index="1" speed="13.89" length="4.87" width="3.66" shape="6700.90,1060.34 6705.13,1057.94"/>
    </edge>
    <edge id=":node_292_start_2" function="internal">
        <lane id=":node_292_start_2_0" index="0" speed="13.89" length="7.86" width="3.66" shape="6703.35,1053.56 6703.94,1061.40"/>
    </edge>
    <edge id=":node_293_start_0" function="internal">
        <lane id=":node_293_start_0_0" index="0" speed="13.89" length="0.30" width="3.66" shape="4770.21,387.15 4770.49,387.25"/>
        <lane id=":node_293_start_0_1" index="1" speed="13.89" length="0.30" width="3.66" shape="4769.01,390.61 4769.29,390.70"/>
    </edge>

    <edge id="237.0" from="node_237_start" to="node_237_end" priority="-1" type="town" shape="1136.72,24.95 1141.90,25.04 1164.09,25.47 1198.04,26.10 1203.31,26.20">
        <lane id="237.0_0" index="0" disallow="all" speed="13.89" length="66.31" width="3.66" shape="1137.03,15.81 1142.08,15.90 1164.27,16.33 1198.21,16.96 1203.34,17.05" type="shoulder"/>
        <lane id="237.0_1" index="1" speed="13.89" length="66.31" width="3.66" shape="1136.97,19.47 1142.01,19.56 1164.20,19.99 1198.15,20.62 1203.27,20.71"/>
        <lane id="237.0_2" index="2" speed="13.89" length="66.31" width="3.66" shape="1136.90,23.13 1141.94,23.21 1164.13,23.64 1198.08,24.27 1203.20,24.37"/>
    </edge>
    <edge id="239.0" from="node_239_start" to="junction_19" priority="-1" type="town" shape="1216.23,26.44 1217.87,26.47 1247.16,27.03 1265.91,27.38 1287.41,27.79 1316.55,28.34 1340.83,28.81 1363.46,29.22 1378.04,29.53 1397.50,29.95 1417.40,30.39 1435.53,30.76 1453.82,31.15 1468.24,31.45 1499.15,32.09 1500.79,32.12">
        <lane id="239.0_0" index="0" disallow="all" speed="13.89" length="284.47" width="3.66" shape="1216.55,17.30 1218.05,17.33 1247.34,17.89 1266.09,18.24 1287.59,18.65 1316.73,19.20 1341.01,19.67 1363.64,20.08 1378.24,20.39 1397.70,20.81 1417.60,21.25 1435.73,21.62 1454.02,22.01 1468.43,22.31 1499.34,22.95 1500.96,22.98" type="shoulder"/>
        <lane id="239.0_1" index="1" speed="13.89" length="284.47" width="3.66" shape="1216.49,20.96 1217.98,20.99 1247.27,21.55 1266.02,21.90 1287.52,22.31 1316.66,22.86 1340.94,23.33 1363.57,23.74 1378.16,24.05 1397.62,24.47 1417.52,24.91 1435.65,25.28 1453.94,25.67 1468.36,25.97 1499.27,26.61 1500.90,26.64"/>
        <lane id="239.0_2" index="2" speed="13.89" length="284.47" width="3.66" shape="1216.42,24.62 1217.91,24.64 1247.20,25.20 1265.95,25.55 1287.45,25.96 1316.59,26.51 1340.87,26.98 1363.50,27.39 1378.08,27.70 1397.54,28.12 1417.44,28.56 1435.57,28.93 1453.86,29.32 1468.28,29.62 1499.19,30.26 1500.83,30.29"/>
    </edge>
    <edge id="248.0" from="junction_74" to="node_248_end" priority="-1" type="town" shape="752.31,17.65 758.58,17.77 786.80,18.28 811.29,18.72 842.44,19.29 875.17,19.88 905.46,20.51 921.90,20.85">
        <lane id="248.0_0" index="0" speed="13.89" length="163.79" width="3.66" shape="756.75,12.25 758.68,12.29 786.90,12.80 811.39,13.24 842.54,13.81 875.28,14.40 905.58,15.03 920.52,15.33"/>
        <lane id="248.0_1" index="1" speed="13.89" length="163.79" width="3.66" shape="756.68,15.91 758.62,15.94 786.84,16.45 811.33,16.89 842.48,17.46 875.21,18.05 905.50,18.68 920.44,18.99"/>
    </edge>
    <edge id="249.0" from="node_248_end" to="node_249_end" priority="-1" type="town" shape="921.90,20.85 928.37,20.98 953.84,21.46 977.49,21.99 1009.13,22.62 1027.89,22.98 1053.00,23.42 1070.24,23.75">
        <lane id="249.0_0" index="0" disallow="all" speed="13.89" length="146.71" width="3.66" shape="923.59,11.74 928.55,11.84 954.03,12.32 977.69,12.85 1009.31,13.48 1028.06,13.84 1053.17,14.28 1070.27,14.60" type="shoulder"/>
        <lane id="249.0_1" index="1" speed="13.89" length="146.71" width="3.66" shape="923.52,15.40 928.48,15.50 953.96,15.98 977.61,16.51 1009.24,17.14 1027.99,17.50 1053.10,17.94 1070.20,18.26"/>
        <lane id="249.0_2" index="2" speed="13.89" length="146.71" width="3.66" shape="923.44,19.05 928.41,19.15 953.88,19.63 977.53,20.16 1009.17,20.79 1027.93,21.15 1053.04,21.59 1070.13,21.92"/>
    </edge>
    <edge id="256.0" from="node_249_end" to="node_237_start" priority="-1" type="town" shape="1070.24,23.75 1071.85,23.78 1097.78,24.28 1117.26,24.64 1136.72,24.95">
        <lane id="256.0_0" index="0" disallow="all" speed="13.89" length="66.18" width="3.66" shape="1070.57,14.61 1072.03,14.64 1097.96,15.14 1117.42,15.50 1136.72,15.80" type="shoulder"/>
        <lane id="256.0_1" index="1" speed="13.89" length="66.18" width="3.66" shape="1070.50,18.27 1071.96,18.30 1097.89,18.80 1117.36,19.16 1136.66,19.46"/>
        <lane id="256.0_2" index="2" speed="13.89" length="66.18" width="3.66" shape="1070.43,21.93 1071.89,21.95 1097.82,22.45 1117.30,22.81 1136.61,23.12"/>
    </edge>
    <edge id="257.0" from="node_257_start" to="junction_74" priority="-1" type="town" shape="0.00,3.06 2.89,3.11 20.81,3.40 40.26,3.78 63.33,4.28 79.71,4.61 93.11,4.91 102.86,5.10 112.17,5.29 124.75,5.54 138.77,5.86 155.94,6.16 171.82,6.48 193.67,6.87 214.76,7.21 230.45,7.51 244.80,7.81 256.75,8.05 271.38,8.26 294.30,8.67 341.97,9.67 371.28,10.28 402.35,10.94 431.50,11.48 455.17,11.96 492.67,12.68 525.25,13.33 549.70,13.83 570.47,14.22 593.30,14.70 613.78,15.11 640.31,15.58 673.66,16.17">
        <lane id="257.0_0" index="0" disallow="all" speed="13.89" length="673.79" width="3.66" shape="0.16,-6.08 3.04,-6.03 20.98,-5.74 40.45,-5.36 63.53,-4.86 79.91,-4.53 93.31,-4.23 103.05,-4.04 112.36,-3.85 124.95,-3.60 138.96,-3.28 156.12,-2.98 172.00,-2.66 193.83,-2.27 214.92,-1.93 230.64,-1.63 244.99,-1.33 256.91,-1.09 271.54,-0.88 294.48,-0.47 342.17,0.53 371.48,1.14 402.54,1.80 431.68,2.34 455.35,2.82 492.85,3.54 525.44,4.19 549.88,4.69 570.66,5.08 593.49,5.56 613.96,5.97 640.48,6.44 673.83,7.03" type="shoulder"/>
        <lane id="257.0_1" index="1" speed="13.89" length="673.79" width="3.66" shape="0.09,-2.42 2.98,-2.37 20.91,-2.08 40.38,-1.70 63.45,-1.20 79.83,-0.87 93.23,-0.57 102.97,-0.38 112.28,-0.19 124.87,0.06 138.88,0.38 156.05,0.68 171.93,1.00 193.77,1.39 214.86,1.73 230.56,2.03 244.92,2.33 256.85,2.57 271.48,2.78 294.41,3.19 342.09,4.19 371.40,4.80 402.46,5.46 431.61,6.00 455.28,6.48 492.78,7.20 525.37,7.85 549.81,8.35 570.58,8.74 593.42,9.22 613.89,9.63 640.41,10.10 673.76,10.69"/>
        <lane id="257.0_2" index="2" speed="13.89" length="673.79" width="3.66" shape="0.03,1.23 2.92,1.28 20.85,1.57 40.30,1.95 63.37,2.45 79.75,2.78 93.15,3.08 102.90,3.27 112.21,3.46 124.79,3.71 138.81,4.03 155.98,4.33 171.86,4.65 193.71,5.04 214.80,5.38 230.49,5.68 244.84,5.98 256.79,6.22 271.41,6.43 294.34,6.84 342.01,7.84 371.32,8.45 402.39,9.11 431.54,9.65 455.21,10.13 492.71,10.85 525.29,11.50 549.74,12.00 570.51,12.39 593.34,12.87 613.82,13.28 640.35,13.75 673.70,14.34"/>
    </edge>
    <edge id="262.0" from="node_237_end" to="node_239_start" priority="-1" type="town">
        <lane id="262.0_0" index="0" disallow="all" speed="13.89" length="12.62" width="3.66" shape="1203.64,17.06 1216.25,17.29" type="shoulder"/>
        <lane id="262.0_1" index="1" speed="13.89" length="12.62" width="3.66" shape="1203.57,20.72 1216.19,20.95"/>
        <lane id="262.0_2" index="2" speed="13.89" length="12.62" width="3.66" shape="1203.50,24.38 1216.12,24.61"/>
    </edge>
    <edge id="263.0" from="junction_74" to="node_263_end" priority="-1" type="town" shape="752.73,10.34 764.01,9.85 780.45,9.13 800.80,8.12 823.27,7.11 846.84,6.06 868.75,5.06 884.64,4.24 893.37,3.60 903.32,2.64 913.04,1.45 920.08,0.33 921.94,0.00">
        <lane id="263.0_0" index="0" speed="13.89" length="165.32" width="3.66" shape="756.70,8.34 763.93,8.03 780.37,7.31 800.72,6.30 823.19,5.29 846.76,4.24 868.67,3.24 884.53,2.42 893.22,1.78 903.13,0.82 912.79,-0.36 919.79,-1.47 921.63,-1.80"/>
    </edge>
    <edge id="267.0" from="node_267_start" to="junction_75" priority="-1" type="town" shape="1966.18,41.10 1968.28,41.14 1980.35,41.39 1993.56,41.63 2006.68,41.89 2019.07,42.09 2034.27,42.39 2047.18,42.65 2062.56,42.96 2075.74,43.21 2085.08,43.39 2097.11,43.65 2110.91,43.95 2130.19,44.36 2147.33,44.74 2165.17,45.05 2186.12,45.45 2205.47,45.82 2225.02,46.22 2241.06,46.54 2261.43,46.89 2278.44,47.24 2294.58,47.50 2312.83,47.86 2334.20,48.26 2353.60,48.60 2373.07,48.97 2393.71,49.38 2416.00,49.81 2435.19,50.18 2454.42,50.57 2472.28,50.92 2488.14,51.19 2506.36,51.57 2523.41,51.91 2543.96,52.34 2564.02,52.77 2574.38,53.01 2583.50,53.17 2593.87,53.35 2605.66,53.60 2618.57,53.83 2630.54,54.07 2641.73,54.30 2655.41,54.58 2671.50,54.88 2684.67,55.13 2696.35,55.39 2709.43,55.61 2722.31,55.88 2739.17,56.18 2754.77,56.45 2765.44,56.64 2778.42,56.89 2793.89,57.17 2806.69,57.42 2826.44,57.76 2838.99,58.00 2857.49,58.34 2870.83,58.60 2883.95,58.90 2898.31,59.23 2912.85,59.52 2927.80,59.83 2948.57,60.24 2965.65,60.58 2984.93,60.96 3001.60,61.27 3022.50,61.66 3038.90,61.99 3056.65,62.34 3069.84,62.59 3080.83,62.79 3094.58,63.06 3106.87,63.30 3122.48,63.59 3140.74,64.04 3162.29,64.44 3186.31,64.95 3206.46,65.34 3225.00,65.73 3242.18,66.07 3247.38,66.17">
        <lane id="267.0_0" index="0" disallow="all" speed="13.89" length="1277.44" width="3.66" shape="1970.37,32.04 1980.53,32.25 1993.74,32.49 2006.85,32.75 2019.24,32.95 2034.46,33.25 2047.37,33.51 2062.74,33.82 2075.92,34.07 2085.27,34.25 2097.31,34.51 2111.11,34.81 2130.39,35.22 2147.52,35.60 2165.34,35.91 2186.30,36.31 2205.66,36.68 2225.21,37.08 2241.23,37.40 2261.61,37.75 2278.61,38.10 2294.75,38.36 2313.01,38.72 2334.37,39.12 2353.77,39.46 2373.25,39.83 2393.89,40.24 2416.18,40.67 2435.38,41.04 2454.61,41.43 2472.45,41.78 2488.32,42.05 2506.55,42.43 2523.60,42.77 2544.16,43.20 2564.23,43.63 2574.57,43.87 2583.66,44.03 2594.05,44.21 2605.84,44.46 2618.75,44.69 2630.73,44.93 2641.92,45.16 2655.59,45.44 2671.68,45.74 2684.86,45.99 2696.53,46.25 2709.61,46.47 2722.49,46.74 2739.34,47.04 2754.93,47.31 2765.61,47.50 2778.60,47.75 2794.07,48.03 2806.86,48.28 2826.61,48.62 2839.17,48.86 2857.67,49.20 2871.03,49.46 2884.16,49.76 2898.51,50.09 2913.04,50.38 2927.99,50.69 2948.76,51.10 2965.84,51.44 2985.11,51.82 3001.78,52.13 3022.68,52.52 3039.09,52.85 3056.83,53.20 3070.01,53.45 3081.01,53.65 3094.76,53.92 3107.05,54.16 3122.68,54.45 3140.94,54.90 3162.48,55.30 3186.50,55.81 3206.65,56.20 3225.19,56.59 3242.36,56.93 3247.56,57.03" type="shoulder"/>
        <lane id="267.0_1" index="1" speed="13.89" length="1277.44" width="3.66" shape="1970.29,35.69 1980.46,35.91 1993.67,36.15 2006.78,36.41 2019.17,36.61 2034.38,36.91 2047.30,37.17 2062.67,37.48 2075.85,37.73 2085.20,37.91 2097.23,38.17 2111.03,38.47 2130.31,38.88 2147.44,39.26 2165.28,39.57 2186.23,39.97 2205.58,40.34 2225.14,40.74 2241.17,41.06 2261.54,41.41 2278.55,41.76 2294.68,42.02 2312.94,42.38 2334.30,42.78 2353.70,43.12 2373.18,43.49 2393.82,43.90 2416.11,44.33 2435.30,44.70 2454.53,45.09 2472.39,45.44 2488.25,45.71 2506.48,46.09 2523.53,46.43 2544.08,46.86 2564.15,47.29 2574.50,47.53 2583.60,47.69 2593.98,47.87 2605.77,48.12 2618.68,48.35 2630.66,48.59 2641.85,48.82 2655.52,49.10 2671.61,49.40 2684.79,49.65 2696.46,49.91 2709.54,50.13 2722.42,50.40 2739.27,50.70 2754.87,50.97 2765.55,51.16 2778.53,51.41 2794.00,51.69 2806.79,51.94 2826.54,52.28 2839.10,52.52 2857.60,52.86 2870.95,53.12 2884.08,53.42 2898.43,53.75 2912.97,54.04 2927.92,54.35 2948.68,54.76 2965.76,55.10 2985.04,55.48 3001.71,55.79 3022.61,56.18 3039.01,56.51 3056.76,56.86 3069.95,57.11 3080.94,57.31 3094.69,57.58 3106.98,57.82 3122.60,58.11 3140.86,58.56 3162.40,58.96 3186.43,59.47 3206.58,59.86 3225.12,60.25 3242.29,60.59 3247.49,60.69"/>
        <lane id="267.0_2" index="2" speed="13.89" length="1277.44" width="3.66" shape="1970.22,39.35 1980.39,39.56 1993.60,39.80 2006.72,40.06 2019.11,40.26 2034.31,40.56 2047.22,40.82 2062.60,41.13 2075.78,41.38 2085.12,41.56 2097.15,41.82 2110.95,42.12 2130.23,42.53 2147.37,42.91 2165.21,43.22 2186.16,43.62 2205.51,43.99 2225.06,44.39 2241.10,44.71 2261.47,45.06 2278.48,45.41 2294.62,45.67 2312.87,46.03 2334.24,46.43 2353.64,46.77 2373.11,47.14 2393.75,47.55 2416.04,47.98 2435.23,48.35 2454.46,48.74 2472.32,49.09 2488.18,49.36 2506.40,49.74 2523.45,50.08 2544.00,50.51 2564.06,50.94 2574.42,51.18 2583.54,51.34 2593.91,51.52 2605.70,51.77 2618.61,52.00 2630.58,52.24 2641.77,52.47 2655.45,52.75 2671.54,53.05 2684.71,53.30 2696.39,53.56 2709.47,53.78 2722.35,54.05 2739.21,54.35 2754.81,54.62 2765.48,54.81 2778.46,55.06 2793.93,55.34 2806.73,55.59 2826.48,55.93 2839.03,56.17 2857.53,56.51 2870.87,56.77 2884.00,57.07 2898.35,57.40 2912.89,57.69 2927.84,58.00 2948.61,58.41 2965.69,58.75 2984.97,59.13 3001.64,59.44 3022.54,59.83 3038.94,60.16 3056.69,60.51 3069.88,60.76 3080.87,60.96 3094.62,61.23 3106.91,61.47 3122.52,61.76 3140.78,62.21 3162.33,62.61 3186.35,63.12 3206.50,63.51 3225.04,63.90 3242.22,64.24 3247.42,64.34"/>
    </edge>
    <edge id="269.0" from="junction_75" to="node_269_end" priority="-1" type="town" shape="3343.62,68.02 3350.52,68.19 3361.75,68.41 3371.42,68.60 3383.37,68.85 3394.56,69.09 3404.51,69.29 3416.85,69.54 3432.55,69.87 3448.78,70.18 3465.23,70.53 3482.19,70.90 3499.31,71.26 3514.90,71.63 3522.87,71.84">
        <lane id="269.0_0" index="0" speed="13.89" length="177.58" width="3.66" shape="3343.98,62.54 3350.64,62.71 3361.86,62.93 3371.54,63.12 3383.49,63.37 3394.68,63.61 3404.63,63.81 3416.97,64.06 3432.66,64.39 3448.90,64.70 3465.35,65.05 3482.31,65.42 3499.44,65.78 3515.04,66.15 3521.52,66.32"/>
        <lane id="269.0_1" index="1" speed="13.89" length="177.58" width="3.66" shape="3343.89,66.20 3350.56,66.36 3361.79,66.58 3371.46,66.77 3383.41,67.02 3394.60,67.26 3404.55,67.46 3416.89,67.71 3432.59,68.04 3448.82,68.35 3465.27,68.70 3482.23,69.07 3499.36,69.43 3514.95,69.80 3521.42,69.98"/>
    </edge>
    <edge id="270.0" from="junction_19" to="node_270_end" priority="-1" type="town" shape="1695.81,35.96 1711.07,36.28 1726.25,36.55 1745.53,36.93 1759.68,37.16">
        <lane id="270.0_0" index="0" disallow="all" speed="13.89" length="62.35" width="3.66" shape="1696.08,23.16 1711.32,23.48 1726.50,23.75 1745.77,24.13 1758.40,24.33" type="shoulder"/>
        <lane id="270.0_1" index="1" speed="13.89" length="62.35" width="3.66" shape="1696.01,26.82 1711.25,27.14 1726.43,27.41 1745.70,27.79 1758.34,27.99"/>
        <lane id="270.0_2" index="2" speed="13.89" length="62.35" width="3.66" shape="1695.93,30.48 1711.18,30.80 1726.36,31.07 1745.63,31.45 1758.28,31.65"/>
        <lane id="270.0_3" index="3" speed="13.89" length="62.35" width="3.66" shape="1695.85,34.13 1711.11,34.45 1726.29,34.72 1745.57,35.10 1758.22,35.31"/>
    </edge>
    <edge id="271.0" from="node_271_start" to="node_271_end" priority="-1" type="town" shape="4528.63,309.14 4540.75,313.39 4557.14,319.07 4573.91,324.86 4589.30,330.16 4609.34,337.08">
        <lane id="271.0_0" index="0" speed="13.89" length="83.73" width="3.66" shape="4531.79,300.56 4543.76,304.75 4560.14,310.43 4576.90,316.21 4592.29,321.51 4610.90,327.94"/>
        <lane id="271.0_1" index="1" speed="13.89" length="83.73" width="3.66" shape="4530.58,304.01 4542.56,308.21 4558.94,313.89 4575.70,319.67 4591.09,324.97 4609.71,331.40"/>
        <lane id="271.0_2" index="2" speed="13.89" length="83.73" width="3.66" shape="4529.37,307.46 4541.36,311.67 4557.74,317.34 4574.51,323.13 4589.90,328.43 4608.51,334.86"/>
    </edge>
    <edge id="272.0" from="node_272_start" to="node_272_end" priority="-1" type="town" shape="7143.79,1215.64 7147.72,1217.00 7158.95,1220.90 7174.04,1226.12 7182.34,1229.00">
        <lane id="272.0_0" index="0" disallow="all" speed="13.89" length="40.50" width="3.66" shape="7146.93,1207.05 7150.72,1208.36 7161.95,1212.26 7177.04,1217.48 7185.20,1220.31" type="shoulder"/>
        <lane id="272.0_1" index="1" speed="13.89" length="40.50" width="3.66" shape="7145.73,1210.51 7149.52,1211.82 7160.75,1215.72 7175.84,1220.94 7184.00,1223.77"/>
        <lane id="272.0_2" index="2" speed="13.89" length="40.50" width="3.66" shape="7144.54,1213.96 7148.32,1215.28 7159.55,1219.18 7174.64,1224.40 7182.80,1227.23"/>
    </edge>