<?xml version='1.0' encoding='utf-8'?>
<connections>
    <connection from="239.0" to="270.0" fromLane="2" toLane="3" />
    <connection from="239.0" to="270.0" fromLane="1" toLane="2" />
    <connection from="276.0" to="275.0" fromLane="1" toLane="2" />
    <connection from="276.0" to="275.0" fromLane="2" toLane="3" />
    <connection from="291.0" to="279.0" fromLane="2" toLane="2" />
    <connection from="291.0" to="279.0" fromLane="1" toLane="1" />
    <connection from="304.0" to="merge_zone_55" fromLane="0" toLane="0" />
    <connection from="merge_zone_55" to="954.0" fromLane="0" toLane="2" dir="r" state="m" />
    <connection from="273.0" to="merge_zone_55" fromLane="0" toLane="1" />
    <connection from="273.0" to="merge_zone_55" fromLane="1" toLane="2" />
    <connection from="merge_zone_55" to="954.0" fromLane="1" toLane="1" />
    <connection from="merge_zone_55" to="954.0" fromLane="2" toLane="2" />
    <connection from="257.0" to="248.0" fromLane="2" toLane="1" />
    <connection from="257.0" to="248.0" fromLane="1" toLane="0" />
    <connection from="257.0" to="263.0" fromLane="1" toLane="0" />
    <connection from="267.0" to="286.0" fromLane="1" toLane="0" />
    <connection from="267.0" to="269.0" fromLane="1" toLane="0" />
    <connection from="267.0" to="269.0" fromLane="2" toLane="1" />
    <connection from="280.0" to="301.0" fromLane="1" toLane="0" />
    <connection from="280.0" to="289.0" fromLane="1" toLane="0" />
    <connection from="280.0" to="289.0" fromLane="2" toLane="1" />
    <connection from="292.0" to="287.0" fromLane="2" toLane="2" />
    <connection from="292.0" to="287.0" fromLane="1" toLane="1" />
</connections>