<?xml version='1.0' encoding='utf-8'?>
<edges>
    <edge id="237.0" from="node_237_start" to="node_237_end" numLanes="3" speed="13.89" type="town" shape="613007.93,3276665.13 613013.11,3276665.22 613013.11,3276665.22 613035.30,3276665.65 613035.30,3276665.65 613069.25,3276666.28 613069.25,3276666.28 613074.52,3276666.38">
        <lane index="0" width="3.66" type="shoulder" disallow="all" />
        <lane index="1" width="3.66" />
        <lane index="2" width="3.66" />
    </edge>
    <edge id="239.0" from="node_239_start" to="junction_19" numLanes="3" speed="13.89" type="town" shape="613087.44,3276666.62 613089.08,3276666.65 613089.08,3276666.65 613118.37,3276667.21 613118.37,3276667.21 613137.12,3276667.56 613137.12,3276667.56 613158.62,3276667.97 613158.62,3276667.97 613187.76,3276668.52 613187.76,3276668.52 613212.04,3276668.99 613212.04,3276668.99 613234.67,3276669.40 613234.67,3276669.40 613249.25,3276669.71 613249.25,3276669.71 613268.71,3276670.13 613268.71,3276670.13 613288.61,3276670.57 613288.61,3276670.57 613306.74,3276670.94 613306.74,3276670.94 613325.03,3276671.33 613325.03,3276671.33 613339.45,3276671.63 613339.45,3276671.63 613370.36,3276672.27 613370.36,3276672.27 613372.00,3276672.30">
        <lane index="0" width="3.66" type="shoulder" disallow="all" />
        <lane index="1" width="3.66" />
        <lane index="2" width="3.66" />
    </edge>
    <edge id="248.0" from="junction_74" to="node_248_end" numLanes="2" speed="13.89" type="town" shape="612623.52,3276657.83 612629.79,3276657.95 612629.79,3276657.95 612658.01,3276658.46 612658.01,3276658.46 612682.50,3276658.90 612682.50,3276658.90 612713.65,3276659.47 612713.65,3276659.47 612746.38,3276660.06 612746.38,3276660.06 612776.67,3276660.69 612776.67,3276660.69 612793.11,3276661.03">
        <lane index="0" width="3.66" />
        <lane index="1" width="3.66" />
    </edge>
    <edge id="249.0" from="node_248_end" to="node_249_end" numLanes="3" speed="13.89" type="town" shape="612793.11,3276661.03 612799.58,3276661.16 612799.58,3276661.16 612825.05,3276661.64 612825.05,3276661.64 612848.70,3276662.17 612848.70,3276662.17 612880.34,3276662.80 612880.34,3276662.80 612899.10,3276663.16 612899.10,3276663.16 612924.21,3276663.60 612924.21,3276663.60 612941.45,3276663.93">
        <lane index="0" width="3.66" type="shoulder" disallow="all" />
        <lane index="1" width="3.66" />
        <lane index="2" width="3.66" />
    </edge>
    <edge id="256.0" from="node_249_end" to="node_237_start" numLanes="3" speed="13.89" type="town" shape="612941.45,3276663.93 612943.06,3276663.96 612943.06,3276663.96 612968.99,3276664.46 612968.99,3276664.46 612988.47,3276664.82 612988.47,3276664.82 613007.93,3276665.13">
        <lane index="0" width="3.66" type="shoulder" disallow="all" />
        <lane index="1" width="3.66" />
        <lane index="2" width="3.66" />
    </edge>
    <edge id="257.0" from="node_257_start" to="junction_74" numLanes="3" speed="13.89" type="town" shape="611871.21,3276643.24 611874.10,3276643.29 611874.10,3276643.29 611892.02,3276643.58 611892.02,3276643.58 611911.47,3276643.96 611911.47,3276643.96 611934.54,3276644.46 611934.54,3276644.46 611950.92,3276644.79 611950.92,3276644.79 611964.32,3276645.09 611964.32,3276645.09 611974.07,3276645.28 611974.07,3276645.28 611983.38,3276645.47 611983.38,3276645.47 611995.96,3276645.72 611995.96,3276645.72 612009.98,3276646.04 612009.98,3276646.04 612027.15,3276646.34 612027.15,3276646.34 612043.03,3276646.66 612043.03,3276646.66 612064.88,3276647.05 612064.88,3276647.05 612085.97,3276647.39 612085.97,3276647.39 612101.66,3276647.69 612101.66,3276647.69 612116.01,3276647.99 612116.01,3276647.99 612127.96,3276648.23 612127.96,3276648.23 612142.59,3276648.44 612142.59,3276648.44 612165.51,3276648.85 612165.51,3276648.85 612213.18,3276649.85 612213.18,3276649.85 612242.49,3276650.46 612242.49,3276650.46 612273.56,3276651.12 612273.56,3276651.12 612302.71,3276651.66 612302.71,3276651.66 612326.38,3276652.14 612326.38,3276652.14 612363.88,3276652.86 612363.88,3276652.86 612396.46,3276653.51 612396.46,3276653.51 612420.91,3276654.01 612420.91,3276654.01 612441.68,3276654.40 612441.68,3276654.40 612464.51,3276654.88 612464.51,3276654.88 612484.99,3276655.29 612484.99,3276655.29 612511.52,3276655.76 612511.52,3276655.76 612544.87,3276656.35">
        <lane index="0" width="3.66" type="shoulder" disallow="all" />
        <lane index="1" width="3.66" />
        <lane index="2" width="3.66" />
    </edge>
    <edge id="262.0" from="node_237_end" to="node_239_start" numLanes="3" speed="13.89" type="town" shape="613074.52,3276666.38 613087.44,3276666.62">
        <lane index="0" width="3.66" type="shoulder" disallow="all" />
        <lane index="1" width="3.66" />
        <lane index="2" width="3.66" />
    </edge>
    <edge id="263.0" from="junction_74" to="node_263_end" numLanes="1" speed="13.89" type="town" shape="612623.94,3276650.52 612635.22,3276650.03 612635.22,3276650.03 612651.66,3276649.31 612651.66,3276649.31 612672.01,3276648.30 612672.01,3276648.30 612694.48,3276647.29 612694.48,3276647.29 612718.05,3276646.24 612718.05,3276646.24 612739.96,3276645.24 612739.96,3276645.24 612755.85,3276644.42 612755.85,3276644.42 612764.58,3276643.78 612764.58,3276643.78 612774.53,3276642.82 612774.53,3276642.82 612784.25,3276641.63 612784.25,3276641.63 612791.29,3276640.51 612791.29,3276640.51 612793.15,3276640.18">
        <lane index="0" width="3.66" />
    </edge>
    <edge id="267.0" from="node_267_start" to="junction_75" numLanes="3" speed="13.89" type="town" shape="613837.39,3276681.28 613839.49,3276681.32 613839.49,3276681.32 613851.56,3276681.57 613851.56,3276681.57 613864.77,3276681.81 613864.77,3276681.81 613877.89,3276682.07 613877.89,3276682.07 613890.28,3276682.27 613890.28,3276682.27 613905.48,3276682.57 613905.48,3276682.57 613918.39,3276682.83 613918.39,3276682.83 613933.77,3276683.14 613933.77,3276683.14 613946.95,3276683.39 613946.95,3276683.39 613956.29,3276683.57 613956.29,3276683.57 613968.32,3276683.83 613968.32,3276683.83 613982.12,3276684.13 613982.12,3276684.13 614001.40,3276684.54 614001.40,3276684.54 614018.54,3276684.92 614018.54,3276684.92 614036.38,3276685.23 614036.38,3276685.23 614057.33,3276685.63 614057.33,3276685.63 614076.68,3276686.00 614076.68,3276686.00 614096.23,3276686.40 614096.23,3276686.40 614112.27,3276686.72 614112.27,3276686.72 614132.64,3276687.07 614132.64,3276687.07 614149.65,3276687.42 614149.65,3276687.42 614165.79,3276687.68 614165.79,3276687.68 614184.04,3276688.04 614184.04,3276688.04 614205.41,3276688.44 614205.41,3276688.44 614224.81,3276688.78 614224.81,3276688.78 614244.28,3276689.15 614244.28,3276689.15 614264.92,3276689.56 614264.92,3276689.56 614287.21,3276689.99 614287.21,3276689.99 614306.40,3276690.36 614306.40,3276690.36 614325.63,3276690.75 614325.63,3276690.75 614343.49,3276691.10 614343.49,3276691.10 614359.35,3276691.37 614359.35,3276691.37 614377.57,3276691.75 614377.57,3276691.75 614394.62,3276692.09 614394.62,3276692.09 614415.17,3276692.52 614415.17,3276692.52 614435.23,3276692.95 614435.23,3276692.95 614445.59,3276693.19 614445.59,3276693.19 614454.71,3276693.35 614454.71,3276693.35 614465.08,3276693.53 614465.08,3276693.53 614476.87,3276693.78 614476.87,3276693.78 614489.78,3276694.01 614489.78,3276694.01 614501.75,3276694.25 614501.75,3276694.25 614512.94,3276694.48 614512.94,3276694.48 614526.62,3276694.76 614526.62,3276694.76 614542.71,3276695.06 614542.71,3276695.06 614555.88,3276695.31 614555.88,3276695.31 614567.56,3276695.57 614567.56,3276695.57 614580.64,3276695.79 614580.64,3276695.79 614593.52,3276696.06 614593.52,3276696.06 614610.38,3276696.36 614610.38,3276696.36 614625.98,3276696.63 614625.98,3276696.63 614636.65,3276696.82 614636.65,3276696.82 614649.63,3276697.07 614649.63,3276697.07 614665.10,3276697.35 614665.10,3276697.35 614677.90,3276697.60 614677.90,3276697.60 614697.65,3276697.94 614697.65,3276697.94 614710.20,3276698.18 614710.20,3276698.18 614728.70,3276698.52 614728.70,3276698.52 614742.04,3276698.78 614742.04,3276698.78 614755.16,3276699.08 614755.16,3276699.08 614769.52,3276699.41 614769.52,3276699.41 614784.06,3276699.70 614784.06,3276699.70 614799.01,3276700.01 614799.01,3276700.01 614819.78,3276700.42 614819.78,3276700.42 614836.86,3276700.76 614836.86,3276700.76 614856.14,3276701.14 614856.14,3276701.14 614872.81,3276701.45 614872.81,3276701.45 614893.71,3276701.84 614893.71,3276701.84 614910.11,3276702.17 614910.11,3276702.17 614927.86,3276702.52 614927.86,3276702.52 614941.05,3276702.77 614941.05,3276702.77 614952.04,3276702.97 614952.04,3276702.97 614965.79,3276703.24 614965.79,3276703.24 614978.08,3276703.48 614978.08,3276703.48 614993.69,3276703.77 614993.69,3276703.77 615011.95,3276704.22 615011.95,3276704.22 615033.50,3276704.62 615033.50,3276704.62 615057.52,3276705.13 615057.52,3276705.13 615077.67,3276705.52 615077.67,3276705.52 615096.21,3276705.91 615096.21,3276705.91 615113.39,3276706.25 615113.39,3276706.25 615118.59,3276706.35">
        <lane index="0" width="3.66" type="shoulder" disallow="all" />
        <lane index="1" width="3.66" />
        <lane index="2" width="3.66" />
    </edge>
    <edge id="269.0" from="junction_75" to="node_269_end" numLanes="2" speed="13.89" type="town" shape="615214.83,3276708.20 615221.73,3276708.37 615221.73,3276708.37 615232.96,3276708.59 615232.96,3276708.59 615242.63,3276708.78 615242.63,3276708.78 615254.58,3276709.03 615254.58,3276709.03 615265.77,3276709.27 615265.77,3276709.27 615275.72,3276709.47 615275.72,3276709.47 615288.06,3276709.72 615288.06,3276709.72 615303.76,3276710.05 615303.76,3276710.05 615319.99,3276710.36 615319.99,3276710.36 615336.44,3276710.71 615336.44,3276710.71 615353.40,3276711.08 615353.40,3276711.08 615370.52,3276711.44 615370.52,3276711.44 615386.11,3276711.81 615386.11,3276711.81 615394.08,3276712.02">
        <lane index="0" width="3.66" />
        <lane index="1" width="3.66" />
    </edge>
    <edge id="270.0" from="junction_19" to="node_270_end" numLanes="4" speed="13.89" type="town" shape="613567.02,3276676.14 613582.28,3276676.46 613582.28,3276676.46 613597.46,3276676.73 613597.46,3276676.73 613616.74,3276677.11 613616.74,3276677.11 613630.89,3276677.34">
        <lane index="0" width="3.66" type="shoulder" disallow="all" />
        <lane index="1" width="3.66" />
        <lane index="2" width="3.66" />
        <lane index="3" width="3.66" />
    </edge>
    <edge id="271.0" from="node_271_start" to="node_271_end" numLanes="3" speed="13.89" type="town" shape="616399.84,3276949.32 616411.96,3276953.57 616411.96,3276953.57 616428.35,3276959.25 616428.35,3276959.25 616445.12,3276965.04 616445.12,3276965.04 616460.51,3276970.34 616460.51,3276970.34 616480.55,3276977.26">
        <lane index="0" width="3.66" />
        <lane index="1" width="3.66" />
        <lane index="2" width="3.66" />
    </edge>
    <edge id="272.0" from="node_272_start" to="node_272_end" numLanes="3" speed="13.89" type="town" shape="619015.00,3277855.82 619018.93,3277857.18 619018.93,3277857.18 619030.16,3277861.08 619030.16,3277861.08 619045.25,3277866.30 619045.25,3277866.30 619053.55,3277869.18">
        <lane index="0" width="3.66" type="shoulder" disallow="all" />
        <lane index="1" width="3.66" />
        <lane index="2" width="3.66" />
    </edge>
    <edge id="273.0" from="node_273_start" to="j_merge_start_55" numLanes="2" speed="13.89" type="town" shape="617829.50,3277445.19 617834.78,3277447.03 617834.78,3277447.03 617855.04,3277454.05 617855.04,3277454.05 617870.10,3277459.27 617870.10,3277459.27 617885.55,3277464.61 617885.55,3277464.61 617903.91,3277470.90 617903.91,3277470.90 617924.15,3277477.93 617924.15,3277477.93 617939.24,3277483.16 617939.24,3277483.16 617950.30,3277487.03 617950.30,3277487.03 617964.01,3277491.79 617964.01,3277491.79 617983.65,3277498.62 617983.65,3277498.62 617994.73,3277502.47">
        <lane index="0" width="3.66" />
        <lane index="1" width="3.66" />
    </edge>
    <edge id="274.0" from="node_274_start" to="node_267_start" numLanes="2" speed="13.89" type="town" shape="613726.61,3276679.19 613734.80,3276679.33 613734.80,3276679.33 613751.07,3276679.67 613751.07,3276679.67 613766.89,3276679.92 613766.89,3276679.92 613780.81,3276680.19 613780.81,3276680.19 613798.49,3276680.49 613798.49,3276680.49 613812.64,3276680.79 613812.64,3276680.79 613826.45,3276681.05 613826.45,3276681.05 613837.39,3276681.28">
        <lane index="0" width="3.66" />
        <lane index="1" width="3.66" />
    </edge>
    <edge id="275.0" from="junction_20" to="node_275_end" numLanes="4" speed="13.89" type="town" shape="619804.87,3278129.44 619813.01,3278132.24 619813.01,3278132.24 619824.83,3278136.36 619824.83,3278136.36 619834.32,3278139.62 619834.32,3278139.62 619844.40,3278143.12 619844.40,3278143.12 619851.14,3278145.46 619851.14,3278145.46 619865.93,3278150.56 619865.93,3278150.56 619875.00,3278153.70 619875.00,3278153.70 619886.60,3278157.74">
        <lane index="0" width="3.66" type="shoulder" disallow="all" />
        <lane index="1" width="3.66" />
        <lane index="2" width="3.66" />
        <lane index="3" width="3.66" />
    </edge>
    <edge id="276.0" from="node_272_end" to="junction_20" numLanes="3" speed="13.89" type="town" shape="619053.55,3277869.18 619057.40,3277870.52 619057.40,3277870.52 619068.26,3277874.28 619068.26,3277874.28 619081.99,3277879.06 619081.99,3277879.06 619097.90,3277884.56 619097.90,3277884.56 619116.77,3277891.09 619116.77,3277891.09 619127.82,3277894.91 619127.82,3277894.91 619145.62,3277901.05 619145.62,3277901.05 619157.11,3277905.04 619157.11,3277905.04 619168.92,3277909.17 619168.92,3277909.17 619183.83,3277914.36 619183.83,3277914.36 619199.78,3277919.88 619199.78,3277919.88 619215.09,3277925.17 619215.09,3277925.17 619229.26,3277930.08 619229.26,3277930.08 619242.00,3277934.51 619242.00,3277934.51 619259.98,3277940.73 619259.98,3277940.73 619273.09,3277945.29 619273.09,3277945.29 619288.62,3277950.68 619288.62,3277950.68 619306.58,3277956.97 619306.58,3277956.97 619322.47,3277962.42 619322.47,3277962.42 619334.94,3277966.72 619334.94,3277966.72 619353.39,3277973.14 619353.39,3277973.14 619367.96,3277978.22 619367.96,3277978.22 619390.41,3277985.97 619390.41,3277985.97 619411.64,3277993.30 619411.64,3277993.30 619428.96,3277999.28 619428.96,3277999.28 619449.46,3278006.35 619449.46,3278006.35 619464.49,3278011.57 619464.49,3278011.57 619480.30,3278017.03 619480.30,3278017.03 619497.13,3278022.90 619497.13,3278022.90 619516.11,3278029.44 619516.11,3278029.44 619538.13,3278037.09 619538.13,3278037.09 619559.56,3278044.55 619559.56,3278044.55 619579.87,3278051.58 619579.87,3278051.58 619602.91,3278059.57 619602.91,3278059.57 619622.64,3278066.36 619622.64,3278066.36 619641.68,3278072.98 619641.68,3278072.98 619667.36,3278081.85 619667.36,3278081.85 619678.58,3278085.73">
        <lane index="0" width="3.66" type="shoulder" disallow="all" />
        <lane index="1" width="3.66" />
        <lane index="2" width="3.66" />
    </edge>
    <edge id="277.0" from="node_271_end" to="node_277_end" numLanes="2" speed="13.89" type="town" shape="616480.55,3276977.26 616494.03,3276981.94 616494.03,3276981.94 616507.65,3276986.67 616507.65,3276986.67 616524.95,3276992.72 616524.95,3276992.72 616540.34,3276998.09 616540.34,3276998.09 616549.76,3277001.37 616549.76,3277001.37 616563.20,3277006.05 616563.20,3277006.05 616579.72,3277011.74">
        <lane index="0" width="3.66" />
        <lane index="1" width="3.66" />
    </edge>
    <edge id="278.0" from="node_285_end" to="node_292_start" numLanes="1" speed="13.89" type="town" shape="618494.71,3277671.75 618575.47,3277695.92">
        <lane index="0" width="3.66" />
    </edge>
    <edge id="279.0" from="junction_21" to="node_271_start" numLanes="3" speed="13.89" type="town" shape="616336.38,3276927.30 616347.09,3276931.05 616347.09,3276931.05 616363.98,3276936.93 616363.98,3276936.93 616379.54,3276942.29 616379.54,3276942.29 616399.84,3276949.32">
        <lane index="0" width="3.66" />
        <lane index="1" width="3.66" />
        <lane index="2" width="3.66" />
    </edge>
    <edge id="280.0" from="node_280_start" to="junction_76" numLanes="3" speed="13.89" type="town" shape="616793.04,3277085.83 616804.20,3277089.70 616804.20,3277089.70 616820.69,3277095.38 616820.69,3277095.38 616837.42,3277101.15 616837.42,3277101.15 616854.92,3277107.18 616854.92,3277107.18 616871.11,3277112.79 616871.11,3277112.79 616887.20,3277118.38 616887.20,3277118.38 616903.50,3277124.02 616903.50,3277124.02 616925.35,3277131.55 616925.35,3277131.55 616942.33,3277137.38 616942.33,3277137.38 616960.76,3277143.79 616960.76,3277143.79 616980.33,3277150.54 616980.33,3277150.54 616993.25,3277155.04">
        <lane index="0" width="3.66" type="shoulder" disallow="all" />
        <lane index="1" width="3.66" />
        <lane index="2" width="3.66" />
    </edge>
    <edge id="281.0" from="node_275_end" to="node_281_end" numLanes="3" speed="13.89" type="town" shape="619886.60,3278157.74 619893.51,3278160.15 619893.51,3278160.15 619902.82,3278163.34 619902.82,3278163.34 619915.31,3278167.67 619915.31,3278167.67 619926.27,3278171.46 619926.27,3278171.46 619948.62,3278179.25 619948.62,3278179.25 619968.01,3278185.91 619968.01,3278185.91 620011.56,3278201.09 620011.56,3278201.09 620072.88,3278222.25 620072.88,3278222.25 620096.05,3278230.25 620096.05,3278230.25 620118.01,3278237.87 620118.01,3278237.87 620149.01,3278248.63 620149.01,3278248.63 620194.97,3278264.50 620194.97,3278264.50 620243.89,3278281.47 620243.89,3278281.47 620274.35,3278291.97 620274.35,3278291.97 620301.57,3278301.23">
        <lane index="0" width="3.66" />
        <lane index="1" width="3.66" />
        <lane index="2" width="3.66" />
    </edge>
    <edge id="283.0" from="node_270_end" to="node_274_start" numLanes="3" speed="13.89" type="town" shape="613630.89,3276677.34 613634.97,3276677.41 613634.97,3276677.41 613650.24,3276677.66 613650.24,3276677.66 613663.64,3276677.94 613663.64,3276677.94 613678.84,3276678.26 613678.84,3276678.26 613695.67,3276678.57 613695.67,3276678.57 613704.40,3276678.78 613704.40,3276678.78 613717.34,3276679.03 613717.34,3276679.03 613726.61,3276679.19">
        <lane index="0" width="3.66" />
        <lane index="1" width="3.66" />
        <lane index="2" width="3.66" />
    </edge>
    <edge id="285.0" from="node_285_start" to="node_285_end" numLanes="3" speed="13.89" type="town" shape="618420.54,3277650.06 618426.60,3277652.15 618426.60,3277652.15 618445.09,3277658.52 618445.09,3277658.52 618460.51,3277663.85 618460.51,3277663.85 618480.08,3277670.62 618480.08,3277670.62 618484.66,3277672.20 618484.66,3277672.20 618493.51,3277675.24">
        <lane index="0" width="3.66" type="shoulder" disallow="all" />
        <lane index="1" width="3.66" />
        <lane index="2" width="3.66" />
    </edge>
    <edge id="286.0" from="junction_75" to="node_286_end" numLanes="1" speed="13.89" type="town" shape="615215.04,3276700.70 615222.98,3276700.69 615222.98,3276700.69 615249.72,3276699.96 615249.72,3276699.96 615268.72,3276699.41 615268.72,3276699.41 615287.71,3276698.79 615287.71,3276698.79 615308.51,3276698.08 615308.51,3276698.08 615343.20,3276696.95 615343.20,3276696.95 615366.57,3276696.15 615366.57,3276696.15 615394.73,3276695.29 615394.73,3276695.29 615427.28,3276694.22 615427.28,3276694.22 615457.35,3276693.05 615457.35,3276693.05 615489.60,3276691.66 615489.60,3276691.66 615517.30,3276689.67 615517.30,3276689.67 615543.21,3276686.94 615543.21,3276686.94 615585.94,3276681.45">
        <lane index="0" width="3.66" />
    </edge>
    <edge id="287.0" from="junction_77" to="node_272_start" numLanes="3" speed="13.89" type="town" shape="618869.28,3277805.35 618879.15,3277808.77 618879.15,3277808.77 618896.76,3277814.87 618896.76,3277814.87 618912.17,3277820.17 618912.17,3277820.17 618927.18,3277825.37 618927.18,3277825.37 618941.34,3277830.29 618941.34,3277830.29 618956.86,3277835.69 618956.86,3277835.69 618973.06,3277841.30 618973.06,3277841.30 618989.19,3277846.89 618989.19,3277846.89 619003.90,3277851.97 619003.90,3277851.97 619015.00,3277855.82">
        <lane index="0" width="3.66" type="shoulder" disallow="all" />
        <lane index="1" width="3.66" />
        <lane index="2" width="3.66" />
    </edge>
    <edge id="289.0" from="junction_76" to="node_289_end" numLanes="2" speed="13.89" type="town" shape="617060.90,3277178.60 617074.05,3277183.17 617074.05,3277183.17 617090.92,3277189.06 617090.92,3277189.06 617107.11,3277194.70 617107.11,3277194.70 617123.86,3277200.52 617123.86,3277200.52 617132.23,3277203.43">
        <lane index="0" width="3.66" />
        <lane index="1" width="3.66" />
    </edge>
    <edge id="290.0" from="node_289_end" to="node_273_start" numLanes="3" speed="13.89" type="town" shape="617132.23,3277203.43 617138.79,3277205.72 617138.79,3277205.72 617152.78,3277210.58 617152.78,3277210.58 617167.90,3277215.83 617167.90,3277215.83 617183.76,3277221.28 617183.76,3277221.28 617199.62,3277226.77 617199.62,3277226.77 617214.40,3277231.86 617214.40,3277231.86 617222.20,3277234.61 617222.20,3277234.61 617235.04,3277239.02 617235.04,3277239.02 617249.18,3277243.92 617249.18,3277243.92 617261.83,3277248.35 617261.83,3277248.35 617277.02,3277253.63 617277.02,3277253.63 617294.51,3277259.68 617294.51,3277259.68 617313.76,3277266.37 617313.76,3277266.37 617328.71,3277271.56 617328.71,3277271.56 617344.02,3277276.81 617344.02,3277276.81 617357.92,3277281.62 617357.92,3277281.62 617371.53,3277286.33 617371.53,3277286.33 617387.79,3277291.99 617387.79,3277291.99 617400.83,3277296.52 617400.83,3277296.52 617412.44,3277300.54 617412.44,3277300.54 617425.43,3277305.06 617425.43,3277305.06 617439.19,3277309.86 617439.19,3277309.86 617456.31,3277315.80 617456.31,3277315.80 617470.36,3277320.68 617470.36,3277320.68 617484.25,3277325.54 617484.25,3277325.54 617498.20,3277330.37 617498.20,3277330.37 617511.28,3277334.95 617511.28,3277334.95 617528.67,3277340.94 617528.67,3277340.94 617543.42,3277346.06 617543.42,3277346.06 617552.79,3277349.35 617552.79,3277349.35 617565.98,3277353.89 617565.98,3277353.89 617580.02,3277358.76 617580.02,3277358.76 617592.96,3277363.24 617592.96,3277363.24 617604.99,3277367.42 617604.99,3277367.42 617620.12,3277372.65 617620.12,3277372.65 617634.71,3277377.71 617634.71,3277377.71 617647.56,3277382.16 617647.56,3277382.16 617661.47,3277386.97 617661.47,3277386.97 617671.57,3277390.48 617671.57,3277390.48 617689.30,3277396.64 617689.30,3277396.64 617703.52,3277401.59 617703.52,3277401.59 617720.87,3277407.59 617720.87,3277407.59 617736.01,3277412.83 617736.01,3277412.83 617751.33,3277418.18 617751.33,3277418.18 617769.63,3277424.50 617769.63,3277424.50 617788.70,3277431.08 617788.70,3277431.08 617803.84,3277436.27 617803.84,3277436.27 617818.18,3277441.27 617818.18,3277441.27 617829.50,3277445.19">
        <lane index="0" width="3.66" type="shoulder" disallow="all" />
        <lane index="1" width="3.66" />
        <lane index="2" width="3.66" />
    </edge>
    <edge id="291.0" from="node_269_end" to="junction_21" numLanes="3" speed="13.89" type="town" shape="615394.08,3276712.02 615406.53,3276712.34 615406.53,3276712.34 615418.37,3276712.63 615418.37,3276712.63 615439.44,3276713.14 615439.44,3276713.14 615460.21,3276713.65 615460.21,3276713.65 615487.16,3276714.31 615487.16,3276714.31 615499.47,3276714.74 615499.47,3276714.74 615509.46,3276715.14 615509.46,3276715.14 615521.90,3276715.72 615521.90,3276715.72 615530.10,3276716.11 615530.10,3276716.11 615541.85,3276716.86 615541.85,3276716.86 615553.30,3276717.65 615553.30,3276717.65 615562.93,3276718.40 615562.93,3276718.40 615570.74,3276719.02 615570.74,3276719.02 615582.96,3276720.19 615582.96,3276720.19 615595.37,3276721.42 615595.37,3276721.42 615607.46,3276722.66 615607.46,3276722.66 615620.76,3276724.08 615620.76,3276724.08 615636.51,3276725.89 615636.51,3276725.89 615648.50,3276727.40 615648.50,3276727.40 615660.55,3276729.00 615660.55,3276729.00 615671.87,3276730.61 615671.87,3276730.61 615685.08,3276732.57 615685.08,3276732.57 615698.78,3276734.65 615698.78,3276734.65 615715.38,3276737.40 615715.38,3276737.40 615723.49,3276738.84 615723.49,3276738.84 615732.13,3276740.41 615732.13,3276740.41 615742.88,3276742.39 615742.88,3276742.39 615752.81,3276744.30 615752.81,3276744.30 615764.45,3276746.60 615764.45,3276746.60 615777.35,3276749.25 615777.35,3276749.25 615788.25,3276751.54 615788.25,3276751.54 615797.93,3276753.62 615797.93,3276753.62 615806.75,3276755.59 615806.75,3276755.59 615815.11,3276757.50 615815.11,3276757.50 615823.33,3276759.41 615823.33,3276759.41 615834.12,3276761.93 615834.12,3276761.93 615844.45,3276764.47 615844.45,3276764.47 615851.41,3276766.22 615851.41,3276766.22 615860.29,3276768.48 615860.29,3276768.48 615871.18,3276771.30 615871.18,3276771.30 615881.20,3276773.96 615881.20,3276773.96 615890.52,3276776.51 615890.52,3276776.51 615897.73,3276778.52 615897.73,3276778.52 615904.06,3276780.34 615904.06,3276780.34 615910.94,3276782.32 615910.94,3276782.32 615918.67,3276784.60 615918.67,3276784.60 615925.75,3276786.70 615925.75,3276786.70 615933.11,3276788.93 615933.11,3276788.93 615939.83,3276790.98 615939.83,3276790.98 615945.85,3276792.86 615945.85,3276792.86 615953.37,3276795.22 615953.37,3276795.22 615960.56,3276797.54 615960.56,3276797.54 615967.94,3276799.90 615967.94,3276799.90 615974.69,3276802.17 615974.69,3276802.17 615982.90,3276804.93 615982.90,3276804.93 615991.21,3276807.78 615991.21,3276807.78 615999.34,3276810.58 615999.34,3276810.58 616005.32,3276812.63 616005.32,3276812.63 616012.32,3276815.04 616012.32,3276815.04 616021.37,3276818.15 616021.37,3276818.15 616033.47,3276822.32 616033.47,3276822.32 616040.56,3276824.75 616040.56,3276824.75 616047.61,3276827.18 616047.61,3276827.18 616055.02,3276829.70 616055.02,3276829.70 616059.92,3276831.39 616059.92,3276831.39 616066.24,3276833.55 616066.24,3276833.55 616072.77,3276835.79 616072.77,3276835.79 616078.82,3276837.87 616078.82,3276837.87 616085.76,3276840.23 616085.76,3276840.23 616092.53,3276842.58 616092.53,3276842.58 616099.59,3276845.03 616099.59,3276845.03 616107.17,3276847.64 616107.17,3276847.64 616114.08,3276850.02 616114.08,3276850.02 616121.52,3276852.58 616121.52,3276852.58 616129.38,3276855.35 616129.38,3276855.35 616136.97,3276857.99 616136.97,3276857.99 616150.20,3276862.61 616150.20,3276862.61 616160.14,3276866.08 616160.14,3276866.08 616175.49,3276871.41 616175.49,3276871.41 616189.47,3276876.34 616189.47,3276876.34 616203.49,3276881.19 616203.49,3276881.19 616219.07,3276886.61 616219.07,3276886.61 616230.44,3276890.54 616230.44,3276890.54 616243.52,3276895.08 616243.52,3276895.08 616251.47,3276897.83 616251.47,3276897.83 616253.95,3276898.68">
        <lane index="0" width="3.66" type="shoulder" disallow="all" />
        <lane index="1" width="3.66" />
        <lane index="2" width="3.66" />
    </edge>
    <edge id="292.0" from="node_292_start" to="junction_77" numLanes="3" speed="13.89" type="town" shape="618573.14,3277702.82 618578.56,3277704.69 618578.56,3277704.69 618587.78,3277707.88 618587.78,3277707.88 618597.31,3277711.19 618597.31,3277711.19 618607.19,3277714.61 618607.19,3277714.61 618619.52,3277718.85 618619.52,3277718.85 618628.42,3277721.90 618628.42,3277721.90 618636.63,3277724.74 618636.63,3277724.74 618646.82,3277728.26 618646.82,3277728.26 618658.22,3277732.17 618658.22,3277732.17 618668.57,3277735.74 618668.57,3277735.74 618678.46,3277739.16 618678.46,3277739.16 618689.61,3277743.02 618689.61,3277743.02 618701.96,3277747.32 618701.96,3277747.32 618715.94,3277752.19 618715.94,3277752.19 618729.61,3277756.92 618729.61,3277756.92 618749.26,3277763.76">
        <lane index="0" width="3.66" />
        <lane index="1" width="3.66" />
        <lane index="2" width="3.66" />
    </edge>
    <edge id="293.0" from="node_293_start" to="node_280_start" numLanes="3" speed="13.89" type="town" shape="616639.76,3277032.56 616654.50,3277037.67 616654.50,3277037.67 616674.67,3277044.66 616674.67,3277044.66 616690.42,3277050.13 616690.42,3277050.13 616707.32,3277055.98 616707.32,3277055.98 616725.60,3277062.34 616725.60,3277062.34 616742.38,3277068.23 616742.38,3277068.23 616759.63,3277074.24 616759.63,3277074.24 616774.39,3277079.37 616774.39,3277079.37 616785.93,3277083.37 616785.93,3277083.37 616793.04,3277085.83">
        <lane index="0" width="3.66" type="shoulder" disallow="all" />
        <lane index="1" width="3.66" />
        <lane index="2" width="3.66" />
    </edge>
    <edge id="294.0" from="node_285_end" to="node_292_start" numLanes="2" speed="13.89" type="town" shape="618493.51,3277675.24 618502.54,3277678.34 618502.54,3277678.34 618509.46,3277680.75 618509.46,3277680.75 618518.11,3277683.75 618518.11,3277683.75 618528.51,3277687.34 618528.51,3277687.34 618540.16,3277691.38 618540.16,3277691.38 618556.52,3277697.01 618556.52,3277697.01 618573.14,3277702.82">
        <lane index="0" width="3.66" />
        <lane index="1" width="3.66" />
    </edge>
    <edge id="301.0" from="junction_76" to="node_301_end" numLanes="1" speed="13.89" type="town" shape="617063.48,3277171.58 617069.17,3277172.87 617069.17,3277172.87 617080.92,3277175.47 617080.92,3277175.47 617087.15,3277176.79 617087.15,3277176.79 617099.38,3277179.04 617099.38,3277179.04 617111.19,3277180.95 617111.19,3277180.95 617121.73,3277182.46 617121.73,3277182.46 617134.52,3277184.26 617134.52,3277184.26 617152.44,3277186.64 617152.44,3277186.64 617171.19,3277189.21 617171.19,3277189.21 617189.32,3277191.85 617189.32,3277191.85 617212.46,3277195.01 617212.46,3277195.01 617221.87,3277196.24">
        <lane index="0" width="3.66" />
    </edge>