<?xml version='1.0' encoding='utf-8'?>
<nodes>
    <node id="node_237_start" x="613007.9291228629" y="3276665.131896914" type="priority" />
    <node id="node_237_end" x="613074.5164012553" y="3276666.375258779" type="priority" />
    <node id="node_239_start" x="613087.4398246115" y="3276666.61887966" type="priority" />
    <node id="node_248_end" x="612793.1132749367" y="3276661.0261335056" type="priority" />
    <node id="node_249_end" x="612941.4512465114" y="3276663.9268849506" type="priority" />
    <node id="node_257_start" x="611871.2053949027" y="3276643.2377415523" type="priority" />
    <node id="node_263_end" x="612793.1538280451" y="3276640.1757150656" type="priority" />
    <node id="node_267_start" x="613837.386722082" y="3276681.2750232546" type="priority" />
    <node id="node_269_end" x="615394.0826283218" y="3276712.016189083" type="priority" />
    <node id="node_270_end" x="613630.8919460545" y="3276677.3440649156" type="priority" />
    <node id="node_271_start" x="616399.8429791472" y="3276949.315073544" type="priority" />
    <node id="node_271_end" x="616480.5457610614" y="3276977.263314477" type="priority" />
    <node id="node_272_start" x="619014.9952768527" y="3277855.8176880176" type="priority" />
    <node id="node_272_end" x="619053.548196054" y="3277869.1800024174" type="priority" />
    <node id="node_273_start" x="617829.4972227225" y="3277445.194144471" type="priority" />
    <node id="node_274_start" x="613726.6119777628" y="3276679.187692876" type="priority" />
    <node id="node_275_end" x="619886.5954982835" y="3278157.7432011487" type="priority" />
    <node id="node_277_end" x="616579.7218890602" y="3277011.737434168" type="priority" />
    <node id="node_278_start" x="618494.7093439336" y="3277671.7471538354" type="priority" />
    <node id="node_278_end" x="618575.4726511035" y="3277695.9206373193" type="priority" />
    <node id="node_280_start" x="616793.0359963409" y="3277085.830618704" type="priority" />
    <node id="node_281_end" x="620301.5728767002" y="3278301.233450429" type="priority" />
    <node id="node_285_start" x="618420.5368027778" y="3277650.0627301508" type="priority" />
    <node id="node_285_end" x="618493.5089023585" y="3277675.2380960295" type="priority" />
    <node id="node_286_end" x="615585.9426352748" y="3276681.4468183173" type="priority" />
    <node id="node_289_end" x="617132.2266760763" y="3277203.434906172" type="priority" />
    <node id="node_292_start" x="618573.1422167092" y="3277702.824059195" type="priority" />
    <node id="node_293_start" x="616639.7572521553" y="3277032.563052635" type="priority" />
    <node id="node_301_end" x="617221.8650280957" y="3277196.241246511" type="priority" />
    <node id="node_303_start" x="616482.9856045601" y="3276970.2381994394" type="priority" />
    <node id="node_303_end" x="616580.9808957888" y="3277008.256059101" type="priority" />
    <node id="node_304_start" x="617709.1813468158" y="3277348.2898447467" type="priority" />
    <node id="node_305_start" x="613726.9367458586" y="3276672.2930087713" type="priority" />
    <node id="node_305_end" x="613837.4889060443" y="3276677.521224218" type="priority" />
    <node id="node_242_start" x="611735.7592999459" y="3276640.5235417997" type="priority" />
    <node id="junction_8" x="0.0" y="0.0" type="priority" />
    <node id="junction_64" x="0.0" y="0.0" type="priority" />
    <node id="junction_59" x="0.0" y="0.0" type="priority" />
    <node id="junction_108" x="0.0" y="0.0" type="priority" />
    <node id="junction_4" x="0.0" y="0.0" type="priority" />
    <node id="junction_10" x="0.0" y="0.0" type="priority" />
    <node id="junction_11" x="0.0" y="0.0" type="priority" />
    <node id="junction_67" x="0.0" y="0.0" type="priority" />
    <node id="junction_60" x="0.0" y="0.0" type="priority" />
    <node id="junction_9" x="0.0" y="0.0" type="priority" />
    <node id="junction_65" x="0.0" y="0.0" type="priority" />
    <node id="junction_5" x="0.0" y="0.0" type="priority" />
    <node id="junction_68" x="0.0" y="0.0" type="priority" />
    <node id="junction_12" x="0.0" y="0.0" type="priority" />
    <node id="junction_66" x="0.0" y="0.0" type="priority" />
    <node id="junction_61" x="0.0" y="0.0" type="priority" />
    <node id="junction_13" x="0.0" y="0.0" type="priority" />
    <node id="junction_69" x="0.0" y="0.0" type="priority" />
    <node id="junction_2" x="0.0" y="0.0" type="priority" />
    <node id="junction_58" x="0.0" y="0.0" type="priority" />
    <node id="junction_15" x="0.0" y="0.0" type="priority" />
    <node id="junction_16" x="0.0" y="0.0" type="priority" />
    <node id="junction_71" x="0.0" y="0.0" type="priority" />
    <node id="junction_14" x="0.0" y="0.0" type="priority" />
    <node id="junction_72" x="0.0" y="0.0" type="priority" />
    <node id="junction_70" x="0.0" y="0.0" type="priority" />
    <node id="junction_1" x="0.0" y="0.0" type="priority" />
    <node id="junction_73" x="0.0" y="0.0" type="priority" />
    <node id="junction_17" x="0.0" y="0.0" type="priority" />
    <node id="junction_18" x="0.0" y="0.0" type="priority" />
    <node id="junction_7" x="0.0" y="0.0" type="priority" />
    <node id="junction_78" x="0.0" y="0.0" type="priority" />
    <node id="junction_62" x="0.0" y="0.0" type="priority" />
    <node id="junction_22" x="0.0" y="0.0" type="priority" />
    <node id="junction_79" x="0.0" y="0.0" type="priority" />
    <node id="junction_23" x="0.0" y="0.0" type="priority" />
    <node id="junction_3" x="0.0" y="0.0" type="priority" />
    <node id="junction_80" x="0.0" y="0.0" type="priority" />
    <node id="junction_24" x="0.0" y="0.0" type="priority" />
    <node id="junction_25" x="0.0" y="0.0" type="priority" />
    <node id="junction_81" x="0.0" y="0.0" type="priority" />
    <node id="junction_26" x="0.0" y="0.0" type="priority" />
    <node id="junction_82" x="0.0" y="0.0" type="priority" />
    <node id="junction_27" x="0.0" y="0.0" type="priority" />
    <node id="junction_83" x="0.0" y="0.0" type="priority" />
    <node id="junction_28" x="0.0" y="0.0" type="priority" />
    <node id="junction_84" x="0.0" y="0.0" type="priority" />
    <node id="junction_85" x="0.0" y="0.0" type="priority" />
    <node id="junction_29" x="0.0" y="0.0" type="priority" />
    <node id="junction_86" x="0.0" y="0.0" type="priority" />
    <node id="junction_87" x="0.0" y="0.0" type="priority" />
    <node id="junction_30" x="0.0" y="0.0" type="priority" />
    <node id="junction_6" x="0.0" y="0.0" type="priority" />
    <node id="junction_88" x="0.0" y="0.0" type="priority" />
    <node id="junction_31" x="0.0" y="0.0" type="priority" />
    <node id="junction_89" x="0.0" y="0.0" type="priority" />
    <node id="junction_32" x="0.0" y="0.0" type="priority" />
    <node id="junction_33" x="0.0" y="0.0" type="priority" />
    <node id="junction_91" x="0.0" y="0.0" type="priority" />
    <node id="junction_34" x="0.0" y="0.0" type="priority" />
    <node id="junction_90" x="0.0" y="0.0" type="priority" />
    <node id="junction_92" x="0.0" y="0.0" type="priority" />
    <node id="junction_37" x="0.0" y="0.0" type="priority" />
    <node id="junction_36" x="0.0" y="0.0" type="priority" />
    <node id="junction_35" x="0.0" y="0.0" type="priority" />
    <node id="junction_94" x="0.0" y="0.0" type="priority" />
    <node id="junction_93" x="0.0" y="0.0" type="priority" />
    <node id="junction_38" x="0.0" y="0.0" type="priority" />
    <node id="junction_95" x="0.0" y="0.0" type="priority" />
    <node id="junction_96" x="0.0" y="0.0" type="priority" />
    <node id="junction_39" x="0.0" y="0.0" type="priority" />
    <node id="junction_111" x="0.0" y="0.0" type="priority" />
    <node id="junction_99" x="0.0" y="0.0" type="priority" />
    <node id="junction_97" x="0.0" y="0.0" type="priority" />
    <node id="junction_41" x="0.0" y="0.0" type="priority" />
    <node id="junction_40" x="0.0" y="0.0" type="priority" />
    <node id="junction_106" x="0.0" y="0.0" type="priority" />
    <node id="junction_100" x="0.0" y="0.0" type="priority" />
    <node id="junction_42" x="0.0" y="0.0" type="priority" />
    <node id="junction_101" x="0.0" y="0.0" type="priority" />
    <node id="junction_47" x="0.0" y="0.0" type="priority" />
    <node id="junction_43" x="0.0" y="0.0" type="priority" />
    <node id="junction_98" x="0.0" y="0.0" type="priority" />
    <node id="junction_103" x="0.0" y="0.0" type="priority" />
    <node id="junction_44" x="0.0" y="0.0" type="priority" />
    <node id="junction_102" x="0.0" y="0.0" type="priority" />
    <node id="junction_104" x="0.0" y="0.0" type="priority" />
    <node id="junction_63" x="0.0" y="0.0" type="priority" />
    <node id="junction_105" x="0.0" y="0.0" type="priority" />
    <node id="junction_45" x="0.0" y="0.0" type="priority" />
    <node id="junction_46" x="0.0" y="0.0" type="priority" />
    <node id="junction_48" x="0.0" y="0.0" type="priority" />
    <node id="junction_107" x="0.0" y="0.0" type="priority" />
    <node id="junction_49" x="0.0" y="0.0" type="priority" />
    <node id="junction_109" x="0.0" y="0.0" type="priority" />
    <node id="junction_50" x="0.0" y="0.0" type="priority" />
    <node id="junction_51" x="0.0" y="0.0" type="priority" />
    <node id="junction_110" x="0.0" y="0.0" type="priority" />
    <node id="junction_52" x="0.0" y="0.0" type="priority" />
    <node id="junction_53" x="0.0" y="0.0" type="priority" />
    <node id="junction_113" x="0.0" y="0.0" type="priority" />
    <node id="junction_54" x="0.0" y="0.0" type="priority" />
    <node id="junction_57" x="0.0" y="0.0" type="priority" />
    <node id="junction_114" x="0.0" y="0.0" type="priority" />
    <node id="junction_56" x="0.0" y="0.0" type="priority" />
    <node id="junction_75" x="615182.8228156074" y="3276705.0858513894" type="priority" />
    <node id="j_merge_start_55" x="617994.7301113522" y="3277502.4668878503" type="priority" />
    <node id="j_merge_end_55" x="618251.873043047" y="3277591.626067771" type="priority" />
    <node id="junction_20" x="619741.7226338484" y="3278107.588327011" type="priority" />
    <node id="junction_19" x="613469.5090722156" y="3276674.219680266" type="priority" />
    <node id="junction_77" x="618809.2676297848" y="3277784.5532251084" type="priority" />
    <node id="junction_74" x="612597.4438191345" y="3276654.899389077" type="priority" />
    <node id="junction_76" x="617039.2075853975" y="3277168.4076107987" type="priority" />
    <node id="junction_21" x="616295.1657755796" y="3276912.990196797" type="priority" />
</nodes>