<?xml version='1.0' encoding='utf-8'?>
<connections>
    <connection from="769.0" to="819.0" fromLane="1" toLane="0" />
    <connection from="769.0" to="819.0" fromLane="2" toLane="1" />
    <connection from="769.0" to="805.0" fromLane="1" toLane="0" />
    <connection from="841.0" to="merge_zone_57" fromLane="2" toLane="3" />
    <connection from="841.0" to="merge_zone_57" fromLane="0" toLane="1" />
    <connection from="841.0" to="merge_zone_57" fromLane="1" toLane="2" />
    <connection from="merge_zone_57" to="840.0" fromLane="3" toLane="2" />
    <connection from="merge_zone_57" to="840.0" fromLane="1" toLane="0" />
    <connection from="merge_zone_57" to="840.0" fromLane="2" toLane="1" />
    <connection from="845.0" to="merge_zone_57" fromLane="0" toLane="0" />
    <connection from="merge_zone_57" to="840.0" fromLane="0" toLane="2" dir="r" state="m" />
    <connection from="235.0" to="merge_zone_61" fromLane="0" toLane="1" />
    <connection from="235.0" to="merge_zone_61" fromLane="1" toLane="2" />
    <connection from="merge_zone_61" to="904.0" fromLane="1" toLane="1" />
    <connection from="merge_zone_61" to="904.0" fromLane="2" toLane="2" />
    <connection from="813.0" to="merge_zone_61" fromLane="0" toLane="0" />
    <connection from="merge_zone_61" to="904.0" fromLane="0" toLane="2" dir="r" state="m" />
</connections>