<?xml version="1.0" encoding="UTF-8"?>

<!-- generated on 2025-10-19 17:33:43 by Eclipse SUMO netconvert Version 1.23.1
<netconvertConfiguration xmlns:xsi="http://www.w3.org/2001/XMLSchema-instance" xsi:noNamespaceSchemaLocation="http://sumo.dlr.de/xsd/netconvertConfiguration.xsd">

    <input>
        <node-files value="/home/sdai/harry/TeraSim/jupiter/wb/jupiter_wb_tiles/tile_0142/tile_0142.nod.xml"/>
        <edge-files value="/home/sdai/harry/TeraSim/jupiter/wb/jupiter_wb_tiles/tile_0142/tile_0142.edg.xml"/>
        <connection-files value="/home/sdai/harry/TeraSim/jupiter/wb/jupiter_wb_tiles/tile_0142/tile_0142.con.xml"/>
    </input>

    <output>
        <output-file value="/home/sdai/harry/TeraSim/jupiter/wb/jupiter_wb_tiles/tile_0142/tile_0142.net.xml"/>
        <output.street-names value="true"/>
        <output.original-names value="true"/>
    </output>

    <processing>
        <geometry.remove value="false"/>
        <geometry.min-dist value="0.5"/>
        <edges.join value="false"/>
    </processing>

    <junctions>
        <no-internal-links value="false"/>
        <no-turnarounds value="true"/>
        <junctions.join value="true"/>
        <junctions.join-dist value="10"/>
        <junctions.corner-detail value="5"/>
        <junctions.internal-link-detail value="5"/>
        <junctions.limit-turn-speed value="5.5"/>
        <rectangular-lane-cut value="true"/>
        <check-lane-foes.all value="true"/>
    </junctions>

</netconvertConfiguration>
-->

<net version="1.20" junctionCornerDetail="5" junctionLinkDetail="5" rectangularLaneCut="true" limitTurnSpeed="5.50" checkLaneFoesAll="1" xmlns:xsi="http://www.w3.org/2001/XMLSchema-instance" xsi:noNamespaceSchemaLocation="http://sumo.dlr.de/xsd/net_file.xsd">

    <location netOffset="-748057.52,-3290543.62" convBoundary="0.00,0.00,8798.78,2250.17" origBoundary="0.00,0.00,757201.58,3292882.19" projParameter="!"/>

    <edge id=":j_merge_end_57_0" function="internal">
        <lane id=":j_merge_end_57_0_0" index="0" disallow="all" speed="13.89" length="25.01" width="3.66" shape="3203.21,820.73 3196.33,817.21 3192.82,812.43 3189.30,807.64 3182.43,804.11"/>
        <lane id=":j_merge_end_57_0_1" index="1" speed="13.89" length="25.01" width="3.66" shape="3204.11,817.18 3180.61,811.20"/>
        <lane id=":j_merge_end_57_0_2" index="2" speed="13.89" length="25.01" width="3.66" shape="3205.01,813.63 3181.52,807.65"/>
        <lane id=":j_merge_end_57_0_3" index="3" disallow="all" speed="13.89" length="25.01" width="3.66" shape="3205.92,810.09 3182.43,804.11"/>
    </edge>
    <edge id=":j_merge_end_61_0" function="internal">
        <lane id=":j_merge_end_61_0_0" index="0" speed="13.89" length="8.11" width="3.66" shape="1279.53,337.16 1277.44,335.44 1277.17,332.77 1276.90,330.11 1274.80,328.39"/>
        <lane id=":j_merge_end_61_0_1" index="1" speed="13.89" length="8.11" width="3.66" shape="1280.45,333.62 1273.89,331.93"/>
        <lane id=":j_merge_end_61_0_2" index="2" speed="13.89" length="8.11" width="3.66" shape="1281.36,330.08 1274.80,328.39"/>
    </edge>
    <edge id=":j_merge_start_57_0" function="internal">
        <lane id=":j_merge_start_57_0_0" index="0" speed="13.89" length="65.39" width="3.66" shape="3327.88,853.15 3264.66,836.47"/>
    </edge>
    <edge id=":j_merge_start_57_1" function="internal">
        <lane id=":j_merge_start_57_1_0" index="0" speed="13.89" length="65.32" width="3.66" shape="3328.84,849.19 3265.57,832.93"/>
        <lane id=":j_merge_start_57_1_1" index="1" speed="13.89" length="65.32" width="3.66" shape="3329.75,845.64 3266.48,829.38"/>
        <lane id=":j_merge_start_57_1_2" index="2" disallow="all" speed="13.89" length="65.32" width="3.66" shape="3330.65,842.10 3267.39,825.84"/>
    </edge>
    <edge id=":j_merge_start_61_0" function="internal">
        <lane id=":j_merge_start_61_0_0" index="0" speed="13.89" length="101.53" width="3.66" shape="1468.16,401.62 1453.64,395.19 1425.20,382.39 1394.92,369.20 1374.87,361.62"/>
    </edge>
    <edge id=":j_merge_start_61_1" function="internal">
        <lane id=":j_merge_start_61_1_0" index="0" speed="13.89" length="119.14" width="3.66" shape="1491.20,387.59 1375.77,358.07"/>
        <lane id=":j_merge_start_61_1_1" index="1" speed="13.89" length="119.14" width="3.66" shape="1492.10,384.05 1376.68,354.53"/>
    </edge>
    <edge id=":junction_118_0" function="internal">
        <lane id=":junction_118_0_0" index="0" speed="13.89" length="55.13" width="3.66" shape="2255.37,583.38 2241.46,580.38 2224.66,577.37 2209.65,574.92 2201.13,573.60"/>
    </edge>
    <edge id=":junction_118_1" function="internal">
        <lane id=":junction_118_1_0" index="0" speed="13.89" length="55.17" width="3.66" shape="2255.37,583.38 2201.94,569.62"/>
        <lane id=":junction_118_1_1" index="1" speed="13.89" length="55.17" width="3.66" shape="2256.28,579.84 2202.85,566.08"/>
    </edge>
    <edge id=":node_125_end_0" function="internal">
        <lane id=":node_125_end_0_0" index="0" speed="13.89" length="0.30" width="3.66" shape="7022.80,1803.43 7022.51,1803.36"/>
        <lane id=":node_125_end_0_1" index="1" speed="13.89" length="0.30" width="3.66" shape="7023.76,1799.90 7023.46,1799.82"/>
    </edge>
    <edge id=":node_125_start_0" function="internal">
        <lane id=":node_125_start_0_0" index="0" speed="13.89" length="0.29" width="3.66" shape="7259.54,1864.96 7259.23,1864.89"/>
        <lane id=":node_125_start_0_1" index="1" speed="13.89" length="0.29" width="3.66" shape="7260.42,1861.41 7260.16,1861.34"/>
    </edge>
    <edge id=":node_132_end_0" function="internal">
        <lane id=":node_132_end_0_0" index="0" speed="13.89" length="0.30" width="3.66" shape="6005.44,1545.36 6005.14,1545.29"/>
        <lane id=":node_132_end_0_1" index="1" speed="13.89" length="0.30" width="3.66" shape="6006.34,1541.81 6006.05,1541.74"/>
    </edge>
    <edge id=":node_137_end_0" function="internal">
        <lane id=":node_137_end_0_0" index="0" speed="13.89" length="0.30" width="3.66" shape="1678.68,435.64 1678.39,435.57"/>
        <lane id=":node_137_end_0_1" index="1" speed="13.89" length="0.30" width="3.66" shape="1679.59,432.10 1679.30,432.02"/>
    </edge>
    <edge id=":node_137_start_0" function="internal">
        <lane id=":node_137_start_0_0" index="0" speed="13.89" length="0.10" width="3.66" shape="1733.08,449.58 1733.08,449.58"/>
        <lane id=":node_137_start_0_1" index="1" speed="13.89" length="0.10" width="3.66" shape="1733.99,446.04 1733.99,446.04"/>
    </edge>
    <edge id=":node_138_end_0" function="internal">
        <lane id=":node_138_end_0_0" index="0" speed="13.89" length="0.30" width="3.66" shape="1628.35,422.74 1628.07,422.67"/>
        <lane id=":node_138_end_0_1" index="1" speed="13.89" length="0.30" width="3.66" shape="1629.26,419.20 1628.97,419.12"/>
    </edge>
    <edge id=":node_769_start_0" function="internal">
        <lane id=":node_769_start_0_0" index="0" speed="13.89" length="0.30" width="3.66" shape="2374.77,613.99 2374.47,613.91"/>
        <lane id=":node_769_start_0_1" index="1" speed="13.89" length="0.30" width="3.66" shape="2375.65,610.43 2375.38,610.36"/>
    </edge>
    <edge id=":node_804_start_0" function="internal">
        <lane id=":node_804_start_0_0" index="0" speed="13.89" length="0.29" width="3.66" shape="2189.99,571.92 2189.70,571.88"/>
    </edge>
    <edge id=":node_809_start_0" function="internal">
        <lane id=":node_809_start_0_0" index="0" speed="13.89" length="8.06" width="3.66" shape="1100.82,287.57 1093.01,285.58"/>
    </edge>
    <edge id=":node_809_start_1" function="internal">
        <lane id=":node_809_start_1_0" index="0" speed="13.89" length="8.00" width="3.66" shape="1100.76,287.56 1093.01,285.58"/>
        <lane id=":node_809_start_1_1" index="1" speed="13.89" length="8.00" width="3.66" shape="1101.66,284.01 1093.92,282.03"/>
    </edge>
    <edge id=":node_811_start_0" function="internal">
        <lane id=":node_811_start_0_0" index="0" speed="13.89" length="0.30" width="3.66" shape="2006.10,519.07 2005.80,518.99"/>
        <lane id=":node_811_start_0_1" index="1" speed="13.89" length="0.30" width="3.66" shape="2007.06,515.54 2006.78,515.46"/>
    </edge>
    <edge id=":node_812_start_0" function="internal">
        <lane id=":node_812_start_0_0" index="0" speed="13.89" length="3.00" width="3.66" shape="2014.61,521.40 2011.72,520.60"/>
        <lane id=":node_812_start_0_1" index="1" speed="13.89" length="3.00" width="3.66" shape="2015.57,517.86 2012.68,517.07"/>
    </edge>
    <edge id=":node_815_start_0" function="internal">
        <lane id=":node_815_start_0_0" index="0" speed="13.89" length="0.30" width="3.66" shape="2629.60,678.56 2629.29,678.49"/>
        <lane id=":node_815_start_0_1" index="1" speed="13.89" length="0.30" width="3.66" shape="2630.42,675.00 2630.14,674.93"/>
    </edge>
    <edge id=":node_817_start_0" function="internal">
        <lane id=":node_817_start_0_0" index="0" speed="13.89" length="3.00" width="3.66" shape="3082.32,786.01 3079.41,785.27"/>
        <lane id=":node_817_start_0_1" index="1" speed="13.89" length="3.00" width="3.66" shape="3083.23,782.47 3080.32,781.72"/>
    </edge>
    <edge id=":node_818_end_0" function="internal">
        <lane id=":node_818_end_0_0" index="0" speed="13.89" length="0.30" width="3.66" shape="5729.99,1474.72 5729.69,1474.64"/>
        <lane id=":node_818_end_0_1" index="1" speed="13.89" length="0.30" width="3.66" shape="5730.89,1471.17 5730.61,1471.10"/>
    </edge>
    <edge id=":node_819_end_0" function="internal">
        <lane id=":node_819_end_0_0" index="0" speed="13.89" length="3.00" width="3.66" shape="2175.81,562.97 2172.91,562.23"/>
        <lane id=":node_819_end_0_1" index="1" speed="13.89" length="3.00" width="3.66" shape="2176.71,559.42 2173.80,558.68"/>
    </edge>
    <edge id=":node_839_end_0" function="internal">
        <lane id=":node_839_end_0_0" index="0" speed="13.89" length="0.30" width="3.66" shape="4622.09,1180.41 4621.81,1180.34"/>
        <lane id=":node_839_end_0_1" index="1" speed="13.89" length="0.30" width="3.66" shape="4623.01,1176.87 4622.71,1176.79"/>
    </edge>
    <edge id=":node_844_end_0" function="internal">
        <lane id=":node_844_end_0_0" index="0" speed="13.89" length="0.10" width="3.66" shape="3396.57,873.08 3396.57,873.08"/>
    </edge>
    <edge id=":node_900_end_0" function="internal">
        <lane id=":node_900_end_0_0" index="0" speed="13.89" length="0.29" width="3.66" shape="7568.82,1938.97 7568.55,1938.91"/>
        <lane id=":node_900_end_0_1" index="1" speed="13.89" length="0.29" width="3.66" shape="7569.63,1935.41 7569.33,1935.34"/>
    </edge>
    <edge id=":node_900_start_0" function="internal">
        <lane id=":node_900_start_0_0" index="0" speed="13.89" length="0.30" width="3.66" shape="7608.62,1948.07 7608.34,1948.00"/>
        <lane id=":node_900_start_0_1" index="1" speed="13.89" length="0.30" width="3.66" shape="7609.46,1944.50 7609.16,1944.43"/>
    </edge>
    <edge id=":node_904_end_0" function="internal">
        <lane id=":node_904_end_0_0" index="0" speed="13.89" length="3.42" width="3.66" shape="1185.34,313.03 1184.40,312.68 1183.81,312.29 1183.23,311.88 1182.30,311.50"/>
    </edge>
    <edge id=":node_904_end_1" function="internal">
        <lane id=":node_904_end_1_0" index="0" speed="13.89" length="3.00" width="3.66" shape="1186.24,309.48 1183.33,308.74"/>
        <lane id=":node_904_end_1_1" index="1" speed="13.89" length="3.00" width="3.66" shape="1187.14,305.93 1184.23,305.19"/>
    </edge>

    <edge id="125.0" from="node_125_start" to="node_125_end" priority="-1" type="town" shape="7260.74,1859.60 7238.77,1853.87 7214.84,1847.93 7200.61,1844.21 7184.56,1840.02 7164.68,1834.90 7155.47,1832.59 7146.19,1830.18 7124.57,1824.74 7108.91,1820.63 7091.63,1816.18 7081.15,1813.49 7070.96,1810.85 7059.59,1807.74 7040.94,1802.69 7030.11,1799.73 7024.09,1798.09">
        <lane id="125.0_0" index="0" speed="13.89" length="244.28" width="3.66" shape="7259.23,1864.89 7237.42,1859.20 7213.48,1853.25 7199.22,1849.53 7183.18,1845.34 7163.32,1840.22 7154.11,1837.91 7144.83,1835.50 7123.20,1830.06 7107.53,1825.95 7090.26,1821.50 7079.78,1818.81 7069.55,1816.16 7058.15,1813.04 7039.50,1807.99 7028.66,1805.03 7022.80,1803.43"/>
        <lane id="125.0_1" index="1" speed="13.89" length="244.28" width="3.66" shape="7260.16,1861.34 7238.32,1855.65 7214.39,1849.71 7200.15,1845.99 7184.10,1841.80 7164.23,1836.68 7155.02,1834.37 7145.74,1831.96 7124.11,1826.52 7108.45,1822.41 7091.17,1817.96 7080.69,1815.27 7070.49,1812.62 7059.11,1809.51 7040.46,1804.46 7029.63,1801.50 7023.76,1799.90"/>
    </edge>
    <edge id="132.0" from="node_125_end" to="node_132_end" priority="-1" type="town" shape="7024.09,1798.09 6997.59,1790.96 6979.57,1786.34 6957.44,1780.95 6934.98,1775.87 6910.00,1770.20 6883.88,1764.34 6851.76,1756.78 6811.71,1746.62 6762.40,1733.91 6736.68,1727.35 6703.54,1718.78 6659.26,1707.46 6621.42,1697.70 6570.15,1684.61 6542.82,1677.60 6511.56,1669.54 6487.53,1663.36 6461.53,1656.73 6440.72,1651.36 6428.25,1648.22 6415.71,1644.96 6391.55,1638.84 6361.06,1630.96 6309.18,1617.64 6265.35,1606.38 6241.65,1600.28 6211.11,1592.41 6177.63,1583.80 6143.68,1575.13 6121.81,1569.43 6087.99,1560.81 6057.65,1553.06 6024.64,1544.57 6006.65,1540.00">
        <lane id="132.0_0" index="0" speed="13.89" length="1049.35" width="3.66" shape="7022.51,1803.36 6996.20,1796.27 6978.24,1791.67 6956.18,1786.30 6933.77,1781.23 6908.79,1775.56 6882.65,1769.70 6850.46,1762.12 6810.35,1751.94 6761.03,1739.23 6735.31,1732.67 6702.17,1724.10 6657.89,1712.78 6620.06,1703.02 6568.79,1689.93 6541.45,1682.92 6510.19,1674.86 6486.17,1668.68 6460.17,1662.05 6439.36,1656.68 6426.89,1653.54 6414.35,1650.28 6390.19,1644.16 6359.69,1636.28 6307.81,1622.96 6263.98,1611.70 6240.28,1605.60 6209.74,1597.73 6176.27,1589.12 6142.31,1580.45 6120.44,1574.75 6086.63,1566.13 6056.29,1558.38 6023.28,1549.89 6005.44,1545.36"/>
        <lane id="132.0_1" index="1" speed="13.89" length="1049.35" width="3.66" shape="7023.46,1799.82 6997.13,1792.73 6979.13,1788.12 6957.02,1782.74 6934.58,1777.66 6909.60,1771.99 6883.47,1766.13 6851.33,1758.56 6811.26,1748.40 6761.94,1735.69 6736.22,1729.13 6703.08,1720.56 6658.80,1709.24 6620.97,1699.48 6569.70,1686.39 6542.36,1679.38 6511.10,1671.32 6487.08,1665.14 6461.08,1658.51 6440.27,1653.14 6427.80,1650.00 6415.26,1646.74 6391.10,1640.62 6360.60,1632.74 6308.72,1619.42 6264.89,1608.16 6241.19,1602.06 6210.65,1594.19 6177.18,1585.58 6143.22,1576.91 6121.35,1571.21 6087.54,1562.59 6057.20,1554.84 6024.19,1546.35 6006.34,1541.81"/>
    </edge>
    <edge id="137.0" from="node_137_start" to="node_137_end" priority="-1" type="town" shape="1734.44,444.26 1720.81,440.77 1707.17,437.27 1693.54,433.78 1679.90,430.28">
        <lane id="137.0_0" index="0" speed="13.89" length="56.15" width="3.66" shape="1733.08,449.58 1719.45,446.09 1705.81,442.59 1692.18,439.10 1678.68,435.64"/>
        <lane id="137.0_1" index="1" speed="13.89" length="56.15" width="3.66" shape="1733.99,446.04 1720.36,442.55 1706.72,439.05 1693.09,435.56 1679.59,432.10"/>
    </edge>
    <edge id="138.0" from="node_137_end" to="node_138_end" priority="-1" type="town" shape="1679.90,430.28 1663.59,426.11 1629.57,417.38">
        <lane id="138.0_0" index="0" speed="13.89" length="51.66" width="3.66" shape="1678.39,435.57 1662.23,431.43 1628.35,422.74"/>
        <lane id="138.0_1" index="1" speed="13.89" length="51.66" width="3.66" shape="1679.30,432.02 1663.14,427.89 1629.26,419.20"/>
    </edge>
    <edge id="235.0" from="node_138_end" to="j_merge_start_61" priority="-1" type="town" shape="1629.57,417.38 1611.75,412.84 1595.55,408.69 1568.34,401.74 1536.91,393.70 1505.71,385.66 1477.05,378.32 1455.55,372.84 1446.14,370.42">
        <lane id="235.0_0" index="0" speed="13.89" length="141.29" width="3.66" shape="1628.07,422.67 1610.39,418.16 1594.19,414.01 1566.98,407.06 1535.54,399.02 1491.20,387.59"/>
        <lane id="235.0_1" index="1" speed="13.89" length="141.29" width="3.66" shape="1628.97,419.12 1611.30,414.62 1595.10,410.47 1567.89,403.52 1536.45,395.48 1492.10,384.05"/>
    </edge>
    <edge id="769.0" from="node_769_start" to="junction_118" priority="-1" type="town" shape="2375.96,608.62 2352.65,602.67 2330.28,596.89 2300.38,589.31 2256.74,578.06">
        <lane id="769.0_0" index="0" disallow="all" speed="13.89" length="122.95" width="3.66" shape="2373.57,617.46 2350.37,611.54 2328.01,605.76 2298.11,598.18 2254.46,586.93" type="shoulder"/>
        <lane id="769.0_1" index="1" speed="13.89" length="122.95" width="3.66" shape="2374.47,613.91 2351.28,607.99 2328.92,602.21 2299.02,594.63 2255.37,583.38"/>
        <lane id="769.0_2" index="2" speed="13.89" length="122.95" width="3.66" shape="2375.38,610.36 2352.19,604.45 2329.83,598.67 2299.93,591.09 2256.28,579.84"/>
    </edge>
    <edge id="804.0" from="node_804_start" to="node_804_end" priority="-1" type="town">
        <lane id="804.0_0" index="0" speed="13.89" length="82.97" width="3.66" shape="2189.70,571.88 2107.83,558.40"/>
    </edge>
    <edge id="805.0" from="junction_118" to="node_804_start" priority="-1" type="town" shape="2213.99,573.87 2206.45,572.55 2190.13,570.09">
        <lane id="805.0_0" index="0" speed="13.89" length="11.26" width="3.66" shape="2201.13,573.60 2189.99,571.92"/>
    </edge>
    <edge id="809.0" from="node_809_start" to="node_809_end" priority="-1" type="town" shape="1098.23,281.24 1072.82,274.74 1043.02,267.06 987.69,252.94 936.49,239.79 918.21,235.11 899.63,230.58 869.98,224.00 834.65,215.91 803.20,208.33 760.83,197.42 700.60,181.85 669.78,173.24 638.95,164.32 613.71,157.21 588.31,150.63 541.62,138.71 494.07,126.54 456.61,116.90 404.00,103.42 345.01,88.35 291.83,74.66 228.12,58.31 163.90,41.91 113.40,28.89 59.67,15.23 0.00,0.00">
        <lane id="809.0_0" index="0" speed="13.89" length="1129.75" width="3.66" shape="1093.01,285.58 1071.45,280.06 1041.66,272.38 986.33,258.26 935.13,245.11 916.88,240.44 898.38,235.93 868.77,229.36 833.39,221.26 801.87,213.66 759.46,202.74 699.17,187.16 668.28,178.53 637.44,169.60 612.28,162.51 586.94,155.95 540.26,144.03 492.71,131.86 455.25,122.22 402.64,108.74 343.65,93.67 290.46,79.98 226.76,63.63 162.54,47.23 112.04,34.21 58.31,20.55 -1.36,5.32"/>
        <lane id="809.0_1" index="1" speed="13.89" length="1129.75" width="3.66" shape="1093.92,282.03 1072.36,276.52 1042.57,268.84 987.24,254.72 936.04,241.57 917.77,236.89 899.21,232.37 869.58,225.79 834.23,217.70 802.76,210.11 760.37,199.20 700.12,183.62 669.28,175.01 638.45,166.08 613.23,158.98 587.85,152.41 541.17,140.49 493.62,128.32 456.16,118.68 403.55,105.20 344.56,90.13 291.37,76.44 227.67,60.09 163.45,43.69 112.95,30.67 59.22,17.01 -0.45,1.78"/>
    </edge>
    <edge id="811.0" from="node_811_start" to="node_137_start" priority="-1" type="town" shape="2007.41,513.73 1992.79,509.66 1975.55,505.09 1957.53,500.69 1939.66,496.51 1928.57,493.92 1917.31,491.07 1894.56,485.30 1864.49,477.61 1837.33,470.56 1799.65,460.97 1762.43,451.41 1740.69,445.86 1734.44,444.26">
        <lane id="811.0_0" index="0" speed="13.89" length="281.47" width="3.66" shape="2005.80,518.99 1991.35,514.96 1974.20,510.42 1956.25,506.03 1938.41,501.86 1927.27,499.26 1915.96,496.40 1893.20,490.62 1863.12,482.93 1835.96,475.88 1798.29,466.29 1761.07,456.73 1739.33,451.18 1733.08,449.58"/>
        <lane id="811.0_1" index="1" speed="13.89" length="281.47" width="3.66" shape="2006.78,515.46 1992.31,511.43 1975.10,506.87 1957.10,502.47 1939.24,498.30 1928.14,495.70 1916.86,492.85 1894.11,487.08 1864.03,479.39 1836.87,472.34 1799.20,462.75 1761.98,453.19 1740.24,447.64 1733.99,446.04"/>
    </edge>
    <edge id="812.0" from="node_812_start" to="node_811_start" priority="-1" type="town">
        <lane id="812.0_0" index="0" speed="13.89" length="5.83" width="3.66" shape="2011.72,520.60 2006.10,519.07"/>
        <lane id="812.0_1" index="1" speed="13.89" length="5.83" width="3.66" shape="2012.68,517.07 2007.06,515.54"/>
    </edge>
    <edge id="813.0" from="node_813_start" to="j_merge_start_61" priority="-1" type="town" shape="1450.97,393.66 1427.46,385.43 1419.11,382.39 1402.03,375.89 1390.87,371.62 1374.80,365.79 1357.79,359.83 1350.15,357.21 1342.54,354.60 1331.95,351.12 1319.08,347.03 1298.01,340.61 1296.16,340.07 1294.31,339.52 1292.46,338.98">
        <lane id="813.0_0" index="0" speed="13.89" length="0.20" width="3.66" shape="1468.35,401.69 1468.16,401.62"/>
    </edge>
    <edge id="815.0" from="node_815_start" to="node_769_start" priority="-1" type="town" shape="2630.70,673.18 2606.25,667.35 2573.01,659.14 2515.83,644.49 2474.71,633.97 2434.46,623.54 2403.17,615.55 2382.20,610.16 2375.96,608.62">
        <lane id="815.0_0" index="0" disallow="all" speed="13.89" length="262.57" width="3.66" shape="2628.44,682.05 2604.09,676.25 2570.78,668.02 2513.56,653.36 2472.43,642.84 2432.18,632.41 2400.90,624.42 2379.94,619.03 2373.90,617.54" type="shoulder"/>
        <lane id="815.0_1" index="1" speed="13.89" length="262.57" width="3.66" shape="2629.29,678.49 2604.96,672.69 2571.67,664.47 2514.47,649.81 2473.34,639.29 2433.09,628.86 2401.81,620.87 2380.85,615.48 2374.77,613.99"/>
        <lane id="815.0_2" index="2" speed="13.89" length="262.57" width="3.66" shape="2630.14,674.93 2605.82,669.13 2572.56,660.92 2515.38,646.27 2474.25,635.75 2434.00,625.32 2402.72,617.33 2381.75,611.94 2375.65,610.43"/>
    </edge>
    <edge id="816.0" from="node_817_end" to="node_815_start" priority="-1" type="town" shape="2649.15,677.45 2630.70,673.18">
        <lane id="816.0_0" index="0" disallow="all" speed="13.89" length="18.73" width="3.66" shape="2647.09,686.37 2628.77,682.13" type="shoulder"/>
        <lane id="816.0_1" index="1" speed="13.89" length="18.73" width="3.66" shape="2647.81,682.78 2629.60,678.56"/>
        <lane id="816.0_2" index="2" speed="13.89" length="18.73" width="3.66" shape="2648.63,679.21 2630.42,675.00"/>
    </edge>
    <edge id="817.0" from="node_817_start" to="node_816_start" priority="-1" type="town" shape="3083.13,776.77 3047.05,767.57 3011.12,758.40 2975.18,749.24 2939.27,740.02 2902.97,730.65 2884.80,726.01 2867.11,721.82 2848.70,717.40 2831.12,713.87 2812.89,710.34 2795.27,707.19 2776.96,703.62 2758.66,700.05 2741.65,696.65 2721.67,692.54 2687.73,685.40 2649.19,676.79">
        <lane id="817.0_0" index="0" disallow="all" speed="13.89" length="443.68" width="3.66" shape="3078.51,788.82 3043.88,779.99 3007.95,770.82 2972.01,761.66 2936.08,752.43 2899.78,743.06 2881.74,738.45 2864.14,734.29 2845.94,729.92 2828.64,726.44 2810.55,722.94 2792.92,719.79 2774.51,716.20 2756.18,712.62 2739.10,709.21 2719.06,705.09 2685.01,697.92 2646.40,689.30" type="shoulder"/>
        <lane id="817.0_1" index="1" speed="13.89" length="443.68" width="3.66" shape="3079.41,785.27 3044.79,776.44 3008.86,767.27 2972.91,758.11 2936.99,748.89 2900.69,739.52 2882.61,734.90 2864.99,730.73 2846.73,726.34 2829.35,722.85 2811.22,719.34 2793.59,716.19 2775.21,712.61 2756.89,709.03 2739.83,705.62 2719.81,701.50 2685.79,694.35 2647.30,685.75"/>
        <lane id="817.0_2" index="2" speed="13.89" length="443.68" width="3.66" shape="3080.32,781.72 3045.69,772.89 3009.76,763.72 2973.82,754.56 2937.90,745.34 2901.60,735.97 2883.49,731.35 2865.84,727.17 2847.52,722.77 2830.06,719.26 2811.89,715.74 2794.26,712.59 2775.91,709.01 2757.60,705.44 2740.56,702.04 2720.55,697.92 2686.57,690.77 2648.09,682.18"/>
        <lane id="817.0_3" index="3" disallow="all" speed="13.89" length="443.68" width="3.66" shape="3081.22,778.18 3046.60,769.35 3010.67,760.18 2974.73,751.02 2938.81,741.80 2902.51,732.43 2884.36,727.79 2866.69,723.60 2848.31,719.19 2830.77,715.67 2812.56,712.14 2794.93,708.99 2776.61,705.42 2758.31,701.85 2741.29,698.45 2721.30,694.34 2687.34,687.19 2648.79,678.58" type="shoulder"/>
    </edge>
    <edge id="818.0" from="node_132_end" to="node_818_end" priority="-1" type="town" shape="6006.65,1540.00 5975.16,1531.92 5955.51,1526.84 5936.24,1521.92 5910.52,1515.27 5879.86,1507.51 5849.92,1499.81 5828.08,1494.17 5793.59,1485.37 5766.73,1478.41 5742.48,1472.21 5731.20,1469.36">
        <lane id="818.0_0" index="0" speed="13.89" length="284.07" width="3.66" shape="6005.14,1545.29 5973.79,1537.24 5954.14,1532.16 5934.87,1527.24 5909.16,1520.59 5878.50,1512.83 5848.55,1505.13 5826.72,1499.49 5792.22,1490.69 5765.36,1483.73 5741.12,1477.53 5729.99,1474.72"/>
        <lane id="818.0_1" index="1" speed="13.89" length="284.07" width="3.66" shape="6006.05,1541.74 5974.70,1533.70 5955.05,1528.62 5935.78,1523.70 5910.07,1517.05 5879.41,1509.29 5849.46,1501.59 5827.63,1495.95 5793.13,1487.15 5766.27,1480.19 5742.03,1473.99 5730.89,1471.17"/>
    </edge>
    <edge id="819.0" from="junction_118" to="node_819_end" priority="-1" type="town" shape="2215.73,567.50 2192.26,561.45 2175.70,557.27">
        <lane id="819.0_0" index="0" speed="13.89" length="26.97" width="3.66" shape="2201.94,569.62 2190.90,566.77 2175.81,562.97"/>
        <lane id="819.0_1" index="1" speed="13.89" length="26.97" width="3.66" shape="2202.85,566.08 2191.81,563.23 2176.71,559.42"/>
    </edge>
    <edge id="820.0" from="node_819_end" to="node_812_start" priority="-1" type="town" shape="2175.70,557.27 2171.92,556.32 2161.47,553.57 2119.79,543.04 2090.96,535.62 2062.91,528.42 2029.18,519.67 2014.61,515.70">
        <lane id="820.0_0" index="0" disallow="all" speed="13.89" length="163.48" width="3.66" shape="2172.01,565.78 2169.64,565.19 2159.19,562.44 2117.53,551.91 2088.68,544.49 2060.62,537.28 2026.83,528.52 2013.65,524.93" type="shoulder"/>
        <lane id="820.0_1" index="1" speed="13.89" length="163.48" width="3.66" shape="2172.91,562.23 2170.55,561.64 2160.10,558.89 2118.43,548.36 2089.59,540.94 2061.54,533.74 2027.77,524.98 2014.61,521.40"/>
        <lane id="820.0_2" index="2" speed="13.89" length="163.48" width="3.66" shape="2173.80,558.68 2171.46,558.10 2161.01,555.35 2119.34,544.82 2090.50,537.40 2062.45,530.20 2028.71,521.44 2015.57,517.86"/>
    </edge>
    <edge id="838.0" from="node_818_end" to="node_839_start" priority="-1" type="town" shape="5731.20,1469.36 5700.59,1461.43 5669.42,1453.46 5638.41,1445.49 5600.08,1435.40 5568.24,1426.68 5535.80,1417.44 5510.92,1410.16">
        <lane id="838.0_0" index="0" speed="13.89" length="228.47" width="3.66" shape="5729.69,1474.64 5699.22,1466.75 5668.06,1458.78 5637.03,1450.81 5598.66,1440.71 5566.76,1431.97 5534.28,1422.72 5509.01,1415.33"/>
        <lane id="838.0_1" index="1" speed="13.89" length="228.47" width="3.66" shape="5730.61,1471.10 5700.13,1463.21 5668.97,1455.24 5637.95,1447.27 5599.61,1437.17 5567.75,1428.45 5535.29,1419.20 5510.04,1411.81"/>
    </edge>
    <edge id="839.0" from="node_838_end" to="node_839_end" priority="-1" type="town" shape="5513.95,1398.44 5469.27,1386.91 5424.42,1375.39 5380.22,1364.10 5336.54,1352.80 5291.31,1341.33 5246.17,1329.59 5201.38,1318.20 5170.92,1310.35 5162.32,1308.49 5135.18,1303.90 5129.88,1301.47 5113.58,1297.25 5069.67,1285.95 5046.79,1280.12 5024.42,1274.38 4980.13,1262.90 4935.94,1251.59 4890.81,1240.01 4846.52,1228.55 4801.90,1217.21 4757.05,1205.74 4713.13,1194.48 4668.25,1182.96 4624.23,1171.51">
        <lane id="839.0_0" index="0" speed="13.89" length="918.25" width="3.66" shape="5511.66,1407.30 5466.99,1395.78 5422.15,1384.26 5377.94,1372.97 5334.27,1361.67 5289.03,1350.20 5243.89,1338.46 5199.11,1327.07 5168.81,1319.26 5160.59,1317.48 5132.46,1312.73 5126.80,1310.13 5111.30,1306.12 5067.40,1294.82 5044.52,1288.99 5022.14,1283.24 4977.85,1271.77 4933.67,1260.46 4888.53,1248.88 4844.25,1237.42 4799.64,1226.08 4754.78,1214.61 4710.86,1203.35 4665.96,1191.82 4622.09,1180.41"/>
        <lane id="839.0_1" index="1" speed="13.89" length="918.25" width="3.66" shape="5512.58,1403.76 5467.90,1392.23 5423.06,1380.71 5378.85,1369.42 5335.18,1358.12 5289.94,1346.65 5244.80,1334.91 5200.02,1323.52 5169.65,1315.70 5161.28,1313.89 5133.55,1309.20 5128.03,1306.67 5112.21,1302.57 5068.31,1291.27 5045.43,1285.44 5023.05,1279.70 4978.76,1268.22 4934.58,1256.91 4889.44,1245.33 4845.16,1233.87 4800.54,1222.53 4755.69,1211.06 4711.77,1199.80 4666.88,1188.28 4623.01,1176.87"/>
        <lane id="839.0_2" index="2" disallow="all" speed="13.89" length="918.25" width="3.66" shape="5513.49,1400.22 5468.81,1388.69 5423.97,1377.17 5379.76,1365.88 5336.09,1354.58 5290.85,1343.11 5245.71,1331.37 5200.93,1319.98 5170.50,1312.14 5161.97,1310.29 5134.64,1305.67 5129.26,1303.21 5113.12,1299.03 5069.22,1287.73 5046.34,1281.90 5023.96,1276.16 4979.67,1264.68 4935.49,1253.37 4890.35,1241.79 4846.07,1230.33 4801.45,1218.99 4756.60,1207.52 4712.68,1196.26 4667.79,1184.74 4623.93,1173.33" type="shoulder"/>
    </edge>
    <edge id="840.0" from="j_merge_end_57" to="node_817_start" priority="-1" type="town" shape="3182.89,802.33 3175.39,800.40 3144.39,792.42 3083.13,776.77">
        <lane id="840.0_0" index="0" speed="13.89" length="101.47" width="3.66" shape="3180.61,811.20 3173.11,809.27 3142.12,801.29 3082.32,786.01"/>
        <lane id="840.0_1" index="1" speed="13.89" length="101.47" width="3.66" shape="3181.52,807.65 3174.02,805.72 3143.03,797.74 3083.23,782.47"/>
        <lane id="840.0_2" index="2" disallow="all" speed="13.89" length="101.47" width="3.66" shape="3182.43,804.11 3174.93,802.18 3143.94,794.20 3084.13,778.92" type="shoulder"/>
    </edge>
    <edge id="841.0" from="node_839_end" to="j_merge_start_57" priority="-1" type="town" shape="4624.23,1171.51 4562.91,1155.87 4501.18,1139.98 4439.65,1124.25 4377.72,1108.37 4339.02,1098.51 4332.60,1097.24 4322.66,1094.70 4318.69,1093.63 4315.61,1092.53 4304.47,1089.59 4254.40,1076.81 4192.75,1061.01 4131.10,1045.18 4069.44,1029.43 4007.77,1013.69 3946.13,997.87 3884.46,982.10 3822.36,966.19 3761.08,950.42 3730.34,942.57 3699.61,934.69 3637.98,918.88 3607.05,910.94 3576.11,903.01 3514.56,887.25 3453.01,871.49 3422.18,863.58 3391.27,855.67 3360.47,847.80 3330.95,840.28">