<?xml version='1.0' encoding='utf-8'?>
<edges>
    <edge id="125.0" from="node_125_start" to="node_125_end" numLanes="2" speed="13.89" type="town" shape="755318.26,3292403.22 755296.29,3292397.49 755296.29,3292397.49 755272.36,3292391.55 755272.36,3292391.55 755258.13,3292387.83 755258.13,3292387.83 755242.08,3292383.64 755242.08,3292383.64 755222.20,3292378.52 755222.20,3292378.52 755212.99,3292376.21 755212.99,3292376.21 755203.71,3292373.80 755203.71,3292373.80 755182.09,3292368.36 755182.09,3292368.36 755166.43,3292364.25 755166.43,3292364.25 755149.15,3292359.80 755149.15,3292359.80 755138.67,3292357.11 755138.67,3292357.11 755128.48,3292354.47 755128.48,3292354.47 755117.11,3292351.36 755117.11,3292351.36 755098.46,3292346.31 755098.46,3292346.31 755087.63,3292343.35 755087.63,3292343.35 755081.61,3292341.71">
        <lane index="0" width="3.66" />
        <lane index="1" width="3.66" />
    </edge>
    <edge id="132.0" from="node_125_end" to="node_132_end" numLanes="2" speed="13.89" type="town" shape="755081.61,3292341.71 755055.11,3292334.58 755055.11,3292334.58 755037.09,3292329.96 755037.09,3292329.96 755014.96,3292324.57 755014.96,3292324.57 754992.50,3292319.49 754992.50,3292319.49 754967.52,3292313.82 754967.52,3292313.82 754941.40,3292307.96 754941.40,3292307.96 754909.28,3292300.40 754909.28,3292300.40 754869.23,3292290.24 754869.23,3292290.24 754819.92,3292277.53 754819.92,3292277.53 754794.20,3292270.97 754794.20,3292270.97 754761.06,3292262.40 754761.06,3292262.40 754716.78,3292251.08 754716.78,3292251.08 754678.94,3292241.32 754678.94,3292241.32 754627.67,3292228.23 754627.67,3292228.23 754600.34,3292221.22 754600.34,3292221.22 754569.08,3292213.16 754569.08,3292213.16 754545.05,3292206.98 754545.05,3292206.98 754519.05,3292200.35 754519.05,3292200.35 754498.24,3292194.98 754498.24,3292194.98 754485.77,3292191.84 754485.77,3292191.84 754473.23,3292188.58 754473.23,3292188.58 754449.07,3292182.46 754449.07,3292182.46 754418.58,3292174.58 754418.58,3292174.58 754366.70,3292161.26 754366.70,3292161.26 754322.87,3292150.00 754322.87,3292150.00 754299.17,3292143.90 754299.17,3292143.90 754268.63,3292136.03 754268.63,3292136.03 754235.15,3292127.42 754235.15,3292127.42 754201.20,3292118.75 754201.20,3292118.75 754179.33,3292113.05 754179.33,3292113.05 754145.51,3292104.43 754145.51,3292104.43 754115.17,3292096.68 754115.17,3292096.68 754082.16,3292088.19 754082.16,3292088.19 754064.17,3292083.62">
        <lane index="0" width="3.66" />
        <lane index="1" width="3.66" />
    </edge>
    <edge id="137.0" from="node_137_start" to="node_137_end" numLanes="2" speed="13.89" type="town" shape="749791.96,3290987.88 749778.33,3290984.39 749778.33,3290984.39 749764.69,3290980.89 749764.69,3290980.89 749751.06,3290977.40 749751.06,3290977.40 749737.42,3290973.90">
        <lane index="0" width="3.66" />
        <lane index="1" width="3.66" />
    </edge>
    <edge id="138.0" from="node_137_end" to="node_138_end" numLanes="2" speed="13.89" type="town" shape="749737.42,3290973.90 749721.11,3290969.73 749721.11,3290969.73 749687.09,3290961.00">
        <lane index="0" width="3.66" />
        <lane index="1" width="3.66" />
    </edge>
    <edge id="235.0" from="node_138_end" to="j_merge_start_61" numLanes="2" speed="13.89" type="town" shape="749687.09,3290961.00 749669.27,3290956.46 749669.27,3290956.46 749653.07,3290952.31 749653.07,3290952.31 749625.86,3290945.36 749625.86,3290945.36 749594.43,3290937.32 749594.43,3290937.32 749563.23,3290929.28 749563.23,3290929.28 749534.57,3290921.94 749534.57,3290921.94 749513.07,3290916.46 749513.07,3290916.46 749503.66,3290914.04">
        <lane index="0" width="3.66" />
        <lane index="1" width="3.66" />
    </edge>
    <edge id="769.0" from="node_769_start" to="junction_118" numLanes="3" speed="13.89" type="town" shape="750433.48,3291152.24 750410.17,3291146.29 750410.17,3291146.29 750387.80,3291140.51 750387.80,3291140.51 750357.90,3291132.93 750357.90,3291132.93 750314.26,3291121.68">
        <lane index="0" width="3.66" type="shoulder" disallow="all" />
        <lane index="1" width="3.66" />
        <lane index="2" width="3.66" />
    </edge>
    <edge id="804.0" from="node_804_start" to="node_804_end" numLanes="1" speed="13.89" type="town" shape="750247.65,3291113.71 750165.65,3291100.21">
        <lane index="0" width="3.66" />
    </edge>
    <edge id="805.0" from="junction_118" to="node_804_start" numLanes="1" speed="13.89" type="town" shape="750271.51,3291117.49 750263.97,3291116.17 750263.97,3291116.17 750247.65,3291113.71">
        <lane index="0" width="3.66" />
    </edge>
    <edge id="809.0" from="node_809_start" to="node_809_end" numLanes="2" speed="13.89" type="town" shape="749155.75,3290824.86 749130.34,3290818.36 749130.34,3290818.36 749100.54,3290810.68 749100.54,3290810.68 749045.21,3290796.56 749045.21,3290796.56 748994.01,3290783.41 748994.01,3290783.41 748975.73,3290778.73 748975.73,3290778.73 748957.15,3290774.20 748957.15,3290774.20 748927.50,3290767.62 748927.50,3290767.62 748892.17,3290759.53 748892.17,3290759.53 748860.72,3290751.95 748860.72,3290751.95 748818.35,3290741.04 748818.35,3290741.04 748758.12,3290725.47 748758.12,3290725.47 748727.30,3290716.86 748727.30,3290716.86 748696.47,3290707.94 748696.47,3290707.94 748671.23,3290700.83 748671.23,3290700.83 748645.83,3290694.25 748645.83,3290694.25 748599.14,3290682.33 748599.14,3290682.33 748551.59,3290670.16 748551.59,3290670.16 748514.13,3290660.52 748514.13,3290660.52 748461.52,3290647.04 748461.52,3290647.04 748402.53,3290631.97 748402.53,3290631.97 748349.35,3290618.28 748349.35,3290618.28 748285.64,3290601.93 748285.64,3290601.93 748221.42,3290585.53 748221.42,3290585.53 748170.92,3290572.51 748170.92,3290572.51 748117.19,3290558.85 748117.19,3290558.85 748057.52,3290543.62">
        <lane index="0" width="3.66" />
        <lane index="1" width="3.66" />
    </edge>
    <edge id="811.0" from="node_811_start" to="node_137_start" numLanes="2" speed="13.89" type="town" shape="750064.93,3291057.35 750050.31,3291053.28 750050.31,3291053.28 750033.07,3291048.71 750033.07,3291048.71 750015.05,3291044.31 750015.05,3291044.31 749997.18,3291040.13 749997.18,3291040.13 749986.09,3291037.54 749986.09,3291037.54 749974.83,3291034.69 749974.83,3291034.69 749952.08,3291028.92 749952.08,3291028.92 749922.01,3291021.23 749922.01,3291021.23 749894.85,3291014.18 749894.85,3291014.18 749857.17,3291004.59 749857.17,3291004.59 749819.95,3290995.03 749819.95,3290995.03 749798.21,3290989.48 749798.21,3290989.48 749791.96,3290987.88">
        <lane index="0" width="3.66" />
        <lane index="1" width="3.66" />
    </edge>
    <edge id="812.0" from="node_812_start" to="node_811_start" numLanes="2" speed="13.89" type="town" shape="750072.13,3291059.32 750064.93,3291057.35">
        <lane index="0" width="3.66" />
        <lane index="1" width="3.66" />
    </edge>
    <edge id="813.0" from="node_813_start" to="j_merge_start_61" numLanes="1" speed="13.89" type="town" shape="749508.49,3290937.28 749484.98,3290929.05 749484.98,3290929.05 749476.63,3290926.01 749476.63,3290926.01 749459.55,3290919.51 749459.55,3290919.51 749448.39,3290915.24 749448.39,3290915.24 749432.32,3290909.41 749432.32,3290909.41 749415.31,3290903.45 749415.31,3290903.45 749407.67,3290900.83 749407.67,3290900.83 749400.06,3290898.22 749400.06,3290898.22 749389.47,3290894.74 749389.47,3290894.74 749376.60,3290890.65 749376.60,3290890.65 749355.53,3290884.23 749355.53,3290884.23 749353.68,3290883.69 749353.68,3290883.69 749351.83,3290883.14 749351.83,3290883.14 749349.98,3290882.60">
        <lane index="0" width="3.66" />
    </edge>
    <edge id="815.0" from="node_815_start" to="node_769_start" numLanes="3" speed="13.89" type="town" shape="750688.22,3291216.80 750663.77,3291210.97 750663.77,3291210.97 750630.53,3291202.76 750630.53,3291202.76 750573.35,3291188.11 750573.35,3291188.11 750532.23,3291177.59 750532.23,3291177.59 750491.98,3291167.16 750491.98,3291167.16 750460.69,3291159.17 750460.69,3291159.17 750439.72,3291153.78 750439.72,3291153.78 750433.48,3291152.24">
        <lane index="0" width="3.66" type="shoulder" disallow="all" />
        <lane index="1" width="3.66" />
        <lane index="2" width="3.66" />
    </edge>
    <edge id="816.0" from="node_817_end" to="node_815_start" numLanes="3" speed="13.89" type="town" shape="750706.67,3291221.07 750688.22,3291216.80">
        <lane index="0" width="3.66" type="shoulder" disallow="all" />
        <lane index="1" width="3.66" />
        <lane index="2" width="3.66" />
    </edge>
    <edge id="817.0" from="node_817_start" to="node_816_start" numLanes="4" speed="13.89" type="town" shape="751140.65,3291320.39 751104.57,3291311.19 751104.57,3291311.19 751068.64,3291302.02 751068.64,3291302.02 751032.70,3291292.86 751032.70,3291292.86 750996.79,3291283.64 750996.79,3291283.64 750960.49,3291274.27 750960.49,3291274.27 750942.32,3291269.63 750942.32,3291269.63 750924.63,3291265.44 750924.63,3291265.44 750906.22,3291261.02 750906.22,3291261.02 750888.64,3291257.49 750888.64,3291257.49 750870.41,3291253.96 750870.41,3291253.96 750852.79,3291250.81 750852.79,3291250.81 750834.48,3291247.24 750834.48,3291247.24 750816.18,3291243.67 750816.18,3291243.67 750799.17,3291240.27 750799.17,3291240.27 750779.19,3291236.16 750779.19,3291236.16 750745.25,3291229.02 750745.25,3291229.02 750706.71,3291220.41">
        <lane index="0" width="3.66" type="shoulder" disallow="all" />
        <lane index="1" width="3.66" />
        <lane index="2" width="3.66" />
        <lane index="3" width="3.66" type="shoulder" disallow="all" />
    </edge>
    <edge id="818.0" from="node_132_end" to="node_818_end" numLanes="2" speed="13.89" type="town" shape="754064.17,3292083.62 754032.68,3292075.54 754032.68,3292075.54 754013.03,3292070.46 754013.03,3292070.46 753993.76,3292065.54 753993.76,3292065.54 753968.04,3292058.89 753968.04,3292058.89 753937.38,3292051.13 753937.38,3292051.13 753907.44,3292043.43 753907.44,3292043.43 753885.60,3292037.79 753885.60,3292037.79 753851.11,3292028.99 753851.11,3292028.99 753824.25,3292022.03 753824.25,3292022.03 753800.00,3292015.83 753800.00,3292015.83 753788.72,3292012.98">
        <lane index="0" width="3.66" />
        <lane index="1" width="3.66" />
    </edge>
    <edge id="819.0" from="junction_118" to="node_819_end" numLanes="2" speed="13.89" type="town" shape="750273.25,3291111.12 750249.78,3291105.07 750249.78,3291105.07 750233.22,3291100.89">
        <lane index="0" width="3.66" />
        <lane index="1" width="3.66" />
    </edge>
    <edge id="820.0" from="node_819_end" to="node_812_start" numLanes="3" speed="13.89" type="town" shape="750233.22,3291100.89 750229.44,3291099.94 750229.44,3291099.94 750218.99,3291097.19 750218.99,3291097.19 750177.31,3291086.66 750177.31,3291086.66 750148.48,3291079.24 750148.48,3291079.24 750120.43,3291072.04 750120.43,3291072.04 750086.70,3291063.29 750086.70,3291063.29 750072.13,3291059.32">
        <lane index="0" width="3.66" type="shoulder" disallow="all" />
        <lane index="1" width="3.66" />
        <lane index="2" width="3.66" />
    </edge>
    <edge id="838.0" from="node_818_end" to="node_839_start" numLanes="2" speed="13.89" type="town" shape="753788.72,3292012.98 753758.11,3292005.05 753758.11,3292005.05 753726.94,3291997.08 753726.94,3291997.08 753695.93,3291989.11 753695.93,3291989.11 753657.60,3291979.02 753657.60,3291979.02 753625.76,3291970.30 753625.76,3291970.30 753593.32,3291961.06 753593.32,3291961.06 753568.44,3291953.78">
        <lane index="0" width="3.66" />
        <lane index="1" width="3.66" />
    </edge>
    <edge id="839.0" from="node_838_end" to="node_839_end" numLanes="3" speed="13.89" type="town" shape="753571.47,3291942.06 753526.79,3291930.53 753526.79,3291930.53 753481.94,3291919.01 753481.94,3291919.01 753437.74,3291907.72 753437.74,3291907.72 753394.06,3291896.42 753394.06,3291896.42 753348.83,3291884.95 753348.83,3291884.95 753303.69,3291873.21 753303.69,3291873.21 753258.90,3291861.82 753258.90,3291861.82 753228.44,3291853.97 753228.44,3291853.97 753219.84,3291852.11 753219.84,3291852.11 753192.70,3291847.52 753192.70,3291847.52 753187.40,3291845.09 753187.40,3291845.09 753171.10,3291840.87 753171.10,3291840.87 753127.19,3291829.57 753127.19,3291829.57 753104.31,3291823.74 753104.31,3291823.74 753081.94,3291818.00 753081.94,3291818.00 753037.65,3291806.52 753037.65,3291806.52 752993.46,3291795.21 752993.46,3291795.21 752948.33,3291783.63 752948.33,3291783.63 752904.04,3291772.17 752904.04,3291772.17 752859.42,3291760.83 752859.42,3291760.83 752814.57,3291749.36 752814.57,3291749.36 752770.65,3291738.10 752770.65,3291738.10 752725.77,3291726.58 752725.77,3291726.58 752681.75,3291715.13">
        <lane index="0" width="3.66" />
        <lane index="1" width="3.66" />
        <lane index="2" width="3.66" type="shoulder" disallow="all" />
    </edge>
    <edge id="840.0" from="j_merge_end_57" to="node_817_start" numLanes="3" speed="13.89" type="town" shape="751240.41,3291345.95 751232.91,3291344.02 751232.91,3291344.02 751201.91,3291336.04 751201.91,3291336.04 751140.65,3291320.39">
        <lane index="0" width="3.66" />
        <lane index="1" width="3.66" />
        <lane index="2" width="3.66" type="shoulder" disallow="all" />
    </edge>
    <edge id="841.0" from="node_839_end" to="j_merge_start_57" numLanes="3" speed="13.89" type="town" shape="752681.75,3291715.13 752620.43,3291699.49 752620.43,3291699.49 752558.70,3291683.60 752558.70,3291683.60 752497.17,3291667.87 752497.17,3291667.87 752435.24,3291651.99 752435.24,3291651.99 752396.54,3291642.13 752396.54,3291642.13 752390.12,3291640.86 752390.12,3291640.86 752380.18,3291638.32 752380.18,3291638.32 752376.21,3291637.25 752376.21,3291637.25 752373.13,3291636.15 752373.13,3291636.15 752361.99,3291633.21 752361.99,3291633.21 752311.92,3291620.43 752311.92,3291620.43 752250.27,3291604.63 752250.27,3291604.63 752188.62,3291588.80 752188.62,3291588.80 752126.96,3291573.05 752126.96,3291573.05 752065.29,3291557.31 752065.29,3291557.31 752003.65,3291541.49 752003.65,3291541.49 751941.98,3291525.72 751941.98,3291525.72 751879.88,3291509.81 751879.88,3291509.81 751818.60,3291494.04 751818.60,3291494.04 751787.86,3291486.19 751787.86,3291486.19 751757.13,3291478.31 751757.13,3291478.31 751695.50,3291462.50 751695.50,3291462.50 751664.57,3291454.56 751664.57,3291454.56 751633.63,3291446.63 751633.63,3291446.63 751572.08,3291430.87 751572.08,3291430.87 751510.53,3291415.11 751510.53,3291415.11 751479.70,3291407.20 751479.70,3291407.20 751448.79,3291399.29 751448.79,3291399.29 751417.99,3291391.42 751417.99,3291391.42 751388.47,3291383.90">
        <lane index="0" width="3.66" />
        <lane index="1" width="3.66" />
        <lane index="2" width="3.66" type="shoulder" disallow="all" />
    </edge>
    <edge id="844.0" from="node_844_start" to="node_844_end" numLanes="1" speed="13.89" type="town" shape="751635.74,3291473.66 751609.97,3291465.08 751609.97,3291465.08 751583.85,3291456.74 751583.85,3291456.74 751543.51,3291444.24 751543.51,3291444.24 751503.79,3291431.26 751503.79,3291431.26 751463.62,3291417.72 751463.62,3291417.72 751454.63,3291414.95">
        <lane index="0" width="3.66" />
    </edge>
    <edge id="845.0" from="node_844_end" to="j_merge_start_57" numLanes="1" speed="13.89" type="town" shape="751454.63,3291414.95 751438.35,3291409.93 751438.35,3291409.93 751422.37,3291405.29 751422.37,3291405.29 751385.80,3291394.98">
        <lane index="0" width="3.66" />
    </edge>
    <edge id="900.0" from="node_900_start" to="node_900_end" numLanes="2" speed="13.89" type="town" shape="755667.24,3292486.30 755647.52,3292481.81 755647.52,3292481.81 755627.40,3292477.20">
        <lane index="0" width="3.66" />
        <lane index="1" width="3.66" />
    </edge>
    <edge id="901.0" from="node_900_end" to="node_125_start" numLanes="2" speed="13.89" type="town" shape="755627.40,3292477.20 755547.87,3292459.83 755547.87,3292459.83 755504.86,3292450.01 755504.86,3292450.01 755464.41,3292440.24 755464.41,3292440.24 755390.96,3292421.58 755390.96,3292421.58 755352.75,3292411.81 755352.75,3292411.81 755318.26,3292403.22">
        <lane index="0" width="3.66" />
        <lane index="1" width="3.66" />
    </edge>
    <edge id="903.0" from="node_903_start" to="node_900_start" numLanes="2" speed="13.89" type="town" shape="756856.30,3292793.79 756818.56,3292784.09 756818.56,3292784.09 756739.93,3292762.69 756739.93,3292762.69 756690.07,3292748.88 756690.07,3292748.88 756625.96,3292731.89 756625.96,3292731.89 756598.83,3292724.66 756598.83,3292724.66 756584.83,3292720.97 756584.83,3292720.97 756571.28,3292717.54 756571.28,3292717.54 756543.48,3292710.32 756543.48,3292710.32 756516.05,3292703.31 756516.05,3292703.31 756491.62,3292697.03 756491.62,3292697.03 756467.19,3292690.76 756467.19,3292690.76 756428.05,3292680.69 756428.05,3292680.69 756332.29,3292656.08 756332.29,3292656.08 756237.24,3292631.68 756237.24,3292631.68 756047.18,3292582.97 756047.18,3292582.97 755856.47,3292533.99 755856.47,3292533.99 755761.55,3292509.64 755761.55,3292509.64 755713.49,3292497.44 755713.49,3292497.44 755683.43,3292490.09 755683.43,3292490.09 755667.24,3292486.30">
        <lane index="0" width="3.66" />
        <lane index="1" width="3.66" />
    </edge>
    <edge id="904.0" from="j_merge_end_61" to="node_904_end" numLanes="3" speed="13.89" type="town" shape="749332.78,3290870.23 749285.45,3290858.06 749285.45,3290858.06 749255.38,3290850.37 749255.38,3290850.37 749243.76,3290847.43">
        <lane index="0" width="3.66" />
        <lane index="1" width="3.66" />
        <lane index="2" width="3.66" />
    </edge>
    <edge id="905.0" from="node_904_end" to="node_809_start" numLanes="2" speed="13.89" type="town" shape="749243.76,3290847.43 749226.10,3290842.95 749226.10,3290842.95 749192.97,3290834.39 749192.97,3290834.39 749161.47,3290826.32 749161.47,3290826.32 749155.75,3290824.86">
        <lane index="0" width="3.66" />
        <lane index="1" width="3.66" />
    </edge>
    <edge id="906.0" from="node_904_end" to="node_809_start" numLanes="1" speed="13.89" type="town" shape="749241.89,3290853.82 749184.03,3290836.76 749184.03,3290836.76 749155.10,3290828.34">
        <lane index="0" width="3.66" />
    </edge>
    <edge id="merge_zone_61" from="j_merge_start_61" to="j_merge_end_61" numLanes="3" speed="13.89" name="Merge zone 61" type="highway_merge" shape="749444.42,3290898.85 749444.42,3290898.85 749414.92,3290891.36 749414.92,3290891.36 749382.66,3290883.11 749382.66,3290883.11 749339.34,3290871.92">
        <lane index="0" width="3.66" />
        <lane index="1" width="3.66" />
        <lane index="2" width="3.66" />
    </edge>
    <edge id="merge_zone_57" from="j_merge_start_57" to="j_merge_end_57" numLanes="4" speed="13.89" name="Merge zone 57" type="highway_merge" shape="751325.37,3291367.68 751325.37,3291367.68 751294.76,3291359.80 751294.76,3291359.80 751263.89,3291351.93">
        <lane index="0" width="3.66" />
        <lane index="1" width="3.66" />
        <lane index="2" width="3.66" />
        <lane index="3" width="3.66" type="shoulder" disallow="all" />
    </edge>
</edges>