<?xml version='1.0' encoding='utf-8'?>
<edges>
    <edge id="382.0" from="node_382_start" to="junction_93" numLanes="3" speed="13.89" type="town" shape="663814.69,3283303.46 663810.18,3283302.97 663810.18,3283302.97 663800.49,3283301.89 663800.49,3283301.89 663790.73,3283300.83 663790.73,3283300.83 663780.93,3283299.76 663780.93,3283299.76 663768.99,3283298.46 663768.99,3283298.46 663758.47,3283297.33 663758.47,3283297.33 663748.73,3283296.26 663748.73,3283296.26 663736.41,3283294.90 663736.41,3283294.90 663726.45,3283293.80 663726.45,3283293.80 663710.91,3283292.10 663710.91,3283292.10 663698.11,3283290.71 663698.11,3283290.71 663673.01,3283287.96 663673.01,3283287.96 663658.98,3283286.40 663658.98,3283286.40 663647.87,3283285.17 663647.87,3283285.17 663634.59,3283283.71 663634.59,3283283.71 663622.94,3283282.45 663622.94,3283282.45 663614.67,3283281.54 663614.67,3283281.54 663601.60,3283280.11 663601.60,3283280.11 663593.15,3283279.17 663593.15,3283279.17 663581.81,3283277.89 663581.81,3283277.89 663572.20,3283276.83 663572.20,3283276.83 663562.15,3283275.72 663562.15,3283275.72 663551.63,3283274.57 663551.63,3283274.57 663544.98,3283273.83 663544.98,3283273.83 663533.71,3283272.59 663533.71,3283272.59 663520.63,3283271.16 663520.63,3283271.16 663513.05,3283270.30 663513.05,3283270.30 663502.51,3283269.14 663502.51,3283269.14 663493.68,3283268.19 663493.68,3283268.19 663486.49,3283267.39 663486.49,3283267.39 663474.05,3283266.04 663474.05,3283266.04 663464.46,3283265.02 663464.46,3283265.02 663455.27,3283264.01 663455.27,3283264.01 663446.47,3283263.01 663446.47,3283263.01 663435.91,3283261.83 663435.91,3283261.83 663422.13,3283260.35 663422.13,3283260.35 663410.32,3283259.06 663410.32,3283259.06 663403.07,3283258.28 663403.07,3283258.28 663396.89,3283257.59 663396.89,3283257.59 663391.83,3283257.02 663391.83,3283257.02 663385.44,3283256.33 663385.44,3283256.33 663377.65,3283255.51 663377.65,3283255.51 663367.62,3283254.39 663367.62,3283254.39 663356.17,3283253.14 663356.17,3283253.14 663346.35,3283252.05 663346.35,3283252.05 663340.24,3283251.38 663340.24,3283251.38 663330.95,3283250.38 663330.95,3283250.38 663316.35,3283248.77 663316.35,3283248.77 663302.75,3283247.26 663302.75,3283247.26 663292.04,3283246.05 663292.04,3283246.05 663278.77,3283244.61 663278.77,3283244.61 663267.35,3283243.39 663267.35,3283243.39 663254.77,3283241.98 663254.77,3283241.98 663244.75,3283240.89 663244.75,3283240.89 663238.50,3283240.20 663238.50,3283240.20 663230.53,3283239.30 663230.53,3283239.30 663220.83,3283238.20 663220.83,3283238.20 663213.19,3283237.36 663213.19,3283237.36 663202.61,3283236.20 663202.61,3283236.20 663192.41,3283235.07 663192.41,3283235.07 663183.84,3283234.14 663183.84,3283234.14 663175.76,3283233.23 663175.76,3283233.23 663165.65,3283232.10 663165.65,3283232.10 663156.45,3283231.10 663156.45,3283231.10 663149.49,3283230.33 663149.49,3283230.33 663140.60,3283229.34 663140.60,3283229.34 663132.49,3283228.47 663132.49,3283228.47 663122.92,3283227.43 663122.92,3283227.43 663113.85,3283226.42 663113.85,3283226.42 663103.35,3283225.30 663103.35,3283225.30 663097.84,3283224.69 663097.84,3283224.69 663088.39,3283223.64 663088.39,3283223.64 663079.60,3283222.70 663079.60,3283222.70 663070.52,3283221.70 663070.52,3283221.70 663063.44,3283220.92 663063.44,3283220.92 663057.43,3283220.27 663057.43,3283220.27 663051.45,3283219.59 663051.45,3283219.59 663044.04,3283218.77 663044.04,3283218.77 663036.88,3283218.00 663036.88,3283218.00 663030.93,3283217.35 663030.93,3283217.35 663020.75,3283216.24 663020.75,3283216.24 663013.72,3283215.45 663013.72,3283215.45 663009.28,3283214.97 663009.28,3283214.97 663003.40,3283214.34 663003.40,3283214.34 662996.22,3283213.55 662996.22,3283213.55 662985.35,3283212.36 662985.35,3283212.36 662974.13,3283211.12 662974.13,3283211.12 662963.86,3283210.01 662963.86,3283210.01 662954.79,3283209.02 662954.79,3283209.02 662945.94,3283208.08 662945.94,3283208.08 662935.02,3283206.90 662935.02,3283206.90 662925.32,3283205.86 662925.32,3283205.86 662914.24,3283204.63 662914.24,3283204.63 662906.68,3283203.80 662906.68,3283203.80 662899.11,3283202.96 662899.11,3283202.96 662889.47,3283201.94 662889.47,3283201.94 662878.58,3283200.73 662878.58,3283200.73 662867.87,3283199.56 662867.87,3283199.56 662858.08,3283198.46 662858.08,3283198.46 662848.93,3283197.45 662848.93,3283197.45 662838.73,3283196.31 662838.73,3283196.31 662829.85,3283195.31 662829.85,3283195.31 662818.34,3283194.03 662818.34,3283194.03 662811.24,3283193.26 662811.24,3283193.26 662804.27,3283192.50 662804.27,3283192.50 662795.78,3283191.57 662795.78,3283191.57 662786.80,3283190.57 662786.80,3283190.57 662779.10,3283189.70 662779.10,3283189.70 662766.14,3283188.30 662766.14,3283188.30 662753.80,3283186.96 662753.80,3283186.96 662743.30,3283185.81 662743.30,3283185.81 662730.95,3283184.47 662730.95,3283184.47 662719.27,3283183.20 662719.27,3283183.20 662704.96,3283181.67 662704.96,3283181.67 662690.96,3283180.17 662690.96,3283180.17 662678.71,3283178.85 662678.71,3283178.85 662664.26,3283177.28 662664.26,3283177.28 662653.04,3283176.06 662653.04,3283176.06 662639.62,3283174.61 662639.62,3283174.61 662628.05,3283173.37 662628.05,3283173.37 662619.21,3283172.36 662619.21,3283172.36 662607.70,3283171.10 662607.70,3283171.10 662599.92,3283170.25 662599.92,3283170.25 662593.75,3283169.56 662593.75,3283169.56 662587.52,3283168.89 662587.52,3283168.89 662576.84,3283167.71 662576.84,3283167.71 662566.49,3283166.55 662566.49,3283166.55 662553.19,3283165.05 662553.19,3283165.05 662538.57,3283163.43 662538.57,3283163.43 662526.30,3283162.08 662526.30,3283162.08 662516.48,3283160.97 662516.48,3283160.97 662504.73,3283159.66 662504.73,3283159.66 662498.08,3283158.90 662498.08,3283158.90 662491.51,3283158.17 662491.51,3283158.17 662480.34,3283156.90 662480.34,3283156.90 662472.63,3283156.05 662472.63,3283156.05 662464.28,3283155.14 662464.28,3283155.14 662454.86,3283154.08 662454.86,3283154.08 662447.55,3283153.26 662447.55,3283153.26 662439.25,3283152.33 662439.25,3283152.33 662425.57,3283150.82 662425.57,3283150.82 662416.36,3283149.81 662416.36,3283149.81 662409.73,3283149.08 662409.73,3283149.08 662399.74,3283147.98 662399.74,3283147.98 662388.95,3283146.80 662388.95,3283146.80 662380.58,3283145.88 662380.58,3283145.88 662370.53,3283144.76 662370.53,3283144.76 662362.08,3283143.81 662362.08,3283143.81 662352.45,3283142.75 662352.45,3283142.75 662340.83,3283141.49 662340.83,3283141.49 662332.21,3283140.52 662332.21,3283140.52 662324.53,3283139.67 662324.53,3283139.67 662320.04,3283139.16 662320.04,3283139.16 662313.87,3283138.47 662313.87,3283138.47 662303.10,3283137.30 662303.10,3283137.30 662295.21,3283136.45 662295.21,3283136.45 662288.53,3283135.72 662288.53,3283135.72 662277.04,3283134.45 662277.04,3283134.45 662268.66,3283133.52 662268.66,3283133.52 662260.33,3283132.64 662260.33,3283132.64 662252.60,3283131.78 662252.60,3283131.78 662243.63,3283130.80 662243.63,3283130.80 662236.21,3283129.99 662236.21,3283129.99 662229.01,3283129.20 662229.01,3283129.20 662223.74,3283128.61 662223.74,3283128.61 662217.49,3283127.94 662217.49,3283127.94 662201.86,3283126.22 662201.86,3283126.22 662192.21,3283125.22 662192.21,3283125.22 662176.52,3283123.50 662176.52,3283123.50 662166.49,3283122.43 662166.49,3283122.43 662155.01,3283121.15 662155.01,3283121.15 662147.81,3283120.37 662147.81,3283120.37 662140.37,3283119.54 662140.37,3283119.54 662134.76,3283118.93 662134.76,3283118.93 662126.77,3283118.05 662126.77,3283118.05 662121.64,3283117.49 662121.64,3283117.49 662112.27,3283116.45 662112.27,3283116.45 662103.48,3283115.49 662103.48,3283115.49 662093.29,3283114.37 662093.29,3283114.37 662082.92,3283113.21 662082.92,3283113.21 662071.60,3283111.98 662071.60,3283111.98 662057.00,3283110.37 662057.00,3283110.37 662045.03,3283109.04 662045.03,3283109.04 662034.40,3283107.89 662034.40,3283107.89 662026.02,3283106.98 662026.02,3283106.98 662019.96,3283106.29 662019.96,3283106.29 662013.12,3283105.58 662013.12,3283105.58 661995.82,3283103.67 661995.82,3283103.67 661987.84,3283102.79 661987.84,3283102.79 661975.08,3283101.43 661975.08,3283101.43 661968.10,3283100.67 661968.10,3283100.67 661962.04,3283100.01 661962.04,3283100.01 661953.85,3283099.07 661953.85,3283099.07 661944.83,3283098.05 661944.83,3283098.05 661937.22,3283097.18 661937.22,3283097.18 661926.92,3283096.08 661926.92,3283096.08 661913.27,3283094.59 661913.27,3283094.59 661898.98,3283093.01 661898.98,3283093.01 661887.60,3283091.77 661887.60,3283091.77 661873.36,3283090.20 661873.36,3283090.20 661853.48,3283088.02 661853.48,3283088.02 661839.26,3283086.42 661839.26,3283086.42 661824.85,3283084.85 661824.85,3283084.85 661811.48,3283083.37 661811.48,3283083.37 661798.76,3283081.98 661798.76,3283081.98 661783.45,3283080.29 661783.45,3283080.29 661766.35,3283078.40 661766.35,3283078.40 661753.68,3283076.97 661753.68,3283076.97 661731.14,3283074.53 661731.14,3283074.53 661714.10,3283072.72 661714.10,3283072.72 661694.08,3283070.54 661694.08,3283070.54 661681.56,3283069.13 661681.56,3283069.13 661666.34,3283067.47 661666.34,3283067.47 661651.51,3283065.83 661651.51,3283065.83 661639.89,3283064.56 661639.89,3283064.56 661625.71,3283063.00 661625.71,3283063.00 661612.10,3283061.52 661612.10,3283061.52 661600.14,3283060.21 661600.14,3283060.21 661589.89,3283059.11 661589.89,3283059.11 661580.11,3283058.05 661580.11,3283058.05 661569.63,3283056.91 661569.63,3283056.91 661558.95,3283055.76 661558.95,3283055.76 661547.67,3283054.52 661547.67,3283054.52 661536.82,3283053.30 661536.82,3283053.30 661520.03,3283051.45 661520.03,3283051.45 661505.32,3283049.86 661505.32,3283049.86 661490.06,3283048.18 661490.06,3283048.18 661477.12,3283046.77 661477.12,3283046.77 661465.17,3283045.44 661465.17,3283045.44 661452.19,3283043.99 661452.19,3283043.99 661439.93,3283042.62 661439.93,3283042.62 661426.76,3283041.18 661426.76,3283041.18 661414.22,3283039.77 661414.22,3283039.77 661400.41,3283038.27 661400.41,3283038.27 661384.62,3283036.55 661384.62,3283036.55 661374.19,3283035.42 661374.19,3283035.42 661359.32,3283033.78 661359.32,3283033.78 661345.21,3283032.28 661345.21,3283032.28 661331.93,3283030.82 661331.93,3283030.82 661318.65,3283029.37 661318.65,3283029.37 661308.16,3283028.22 661308.16,3283028.22 661291.34,3283026.39 661291.34,3283026.39 661278.65,3283025.03 661278.65,3283025.03 661261.87,3283023.22 661261.87,3283023.22 661250.42,3283021.98 661250.42,3283021.98 661236.91,3283020.48 661236.91,3283020.48 661222.26,3283018.85 661222.26,3283018.85 661210.12,3283017.50 661210.12,3283017.50 661199.84,3283016.34 661199.84,3283016.34 661186.00,3283014.83 661186.00,3283014.83 661176.40,3283013.77 661176.40,3283013.77 661162.38,3283012.24 661162.38,3283012.24 661153.57,3283011.23 661153.57,3283011.23 661142.49,3283010.02 661142.49,3283010.02 661133.16,3283008.96 661133.16,3283008.96 661121.08,3283007.61 661121.08,3283007.61 661109.31,3283006.30 661109.31,3283006.30 661097.32,3283004.99 661097.32,3283004.99 661083.67,3283003.46 661083.67,3283003.46 661073.39,3283002.32 661073.39,3283002.32 661063.91,3283001.29 661063.91,3283001.29 661056.36,3283000.45 661056.36,3283000.45 661044.98,3282999.19 661044.98,3282999.19 661034.83,3282998.07 661034.83,3282998.07 661022.22,3282996.66 661022.22,3282996.66 661011.94,3282995.53 661011.94,3282995.53 660999.57,3282994.16 660999.57,3282994.16 660989.80,3282993.09 660989.80,3282993.09 660978.02,3282991.80 660978.02,3282991.80 660968.22,3282990.74 660968.22,3282990.74 660954.92,3282989.26 660954.92,3282989.26 660942.71,3282987.91 660942.71,3282987.91 660923.75,3282985.82 660923.75,3282985.82 660908.01,3282984.11 660908.01,3282984.11 660894.79,3282982.66 660894.79,3282982.66 660883.07,3282981.34 660883.07,3282981.34 660871.01,3282980.02 660871.01,3282980.02 660860.27,3282978.81 660860.27,3282978.81 660852.16,3282977.90 660852.16,3282977.90 660842.65,3282976.86 660842.65,3282976.86 660832.48,3282975.74 660832.48,3282975.74 660821.31,3282974.51 660821.31,3282974.51 660807.94,3282973.04 660807.94,3282973.04 660800.01,3282972.19 660800.01,3282972.19 660789.68,3282971.08 660789.68,3282971.08 660778.78,3282969.85 660778.78,3282969.85 660770.07,3282968.90 660770.07,3282968.90 660762.90,3282968.13 660762.90,3282968.13 660756.81,3282967.45 660756.81,3282967.45 660749.82,3282966.70 660749.82,3282966.70 660742.31,3282965.87 660742.31,3282965.87 660732.75,3282964.84 660732.75,3282964.84 660724.56,3282963.94 660724.56,3282963.94 660718.03,3282963.23 660718.03,3282963.23 660711.43,3282962.53 660711.43,3282962.53 660705.13,3282961.82 660705.13,3282961.82 660698.88,3282961.17 660698.88,3282961.17 660690.28,3282960.22 660690.28,3282960.22 660680.20,3282959.12 660680.20,3282959.12 660669.12,3282957.91 660669.12,3282957.91 660660.02,3282956.92 660660.02,3282956.92 660650.90,3282955.93 660650.90,3282955.93 660645.31,3282955.31 660645.31,3282955.31 660636.29,3282954.31 660636.29,3282954.31 660629.37,3282953.56 660629.37,3282953.56 660621.85,3282952.72 660621.85,3282952.72 660615.65,3282952.06 660615.65,3282952.06 660609.27,3282951.38 660609.27,3282951.38 660602.95,3282950.68 660602.95,3282950.68 660595.19,3282949.85 660595.19,3282949.85 660587.13,3282948.98 660587.13,3282948.98 660577.63,3282947.92 660577.63,3282947.92 660571.12,3282947.23 660571.12,3282947.23 660562.52,3282946.30 660562.52,3282946.30 660553.94,3282945.36 660553.94,3282945.36 660543.13,3282944.20 660543.13,3282944.20 660533.72,3282943.18 660533.72,3282943.18 660522.63,3282941.96 660522.63,3282941.96 660512.29,3282940.83 660512.29,3282940.83 660501.23,3282939.65 660501.23,3282939.65 660488.44,3282938.26 660488.44,3282938.26 660476.15,3282936.88 660476.15,3282936.88 660466.00,3282935.77 660466.00,3282935.77 660459.77,3282935.10 660459.77,3282935.10 660449.86,3282934.00 660449.86,3282934.00 660442.97,3282933.26 660442.97,3282933.26 660434.56,3282932.33 660434.56,3282932.33 660426.35,3282931.45 660426.35,3282931.45 660417.97,3282930.53 660417.97,3282930.53 660409.34,3282929.60 660409.34,3282929.60 660401.17,3282928.69 660401.17,3282928.69 660392.17,3282927.71 660392.17,3282927.71 660382.54,3282926.65 660382.54,3282926.65 660371.39,3282925.43 660371.39,3282925.43 660359.21,3282924.11 660359.21,3282924.11 660349.78,3282923.07 660349.78,3282923.07 660339.56,3282921.95 660339.56,3282921.95 660331.18,3282921.03 660331.18,3282921.03 660322.46,3282920.08 660322.46,3282920.08 660316.22,3282919.42 660316.22,3282919.42 660309.54,3282918.67 660309.54,3282918.67 660303.39,3282918.01 660303.39,3282918.01 660296.00,3282917.20 660296.00,3282917.20 660290.10,3282916.57 660290.10,3282916.57 660284.00,3282915.91 660284.00,3282915.91 660278.42,3282915.29 660278.42,3282915.29 660273.18,3282914.72 660273.18,3282914.72 660267.21,3282914.09 660267.21,3282914.09 660257.61,3282913.01 660257.61,3282913.01 660250.04,3282912.17 660250.04,3282912.17 660241.79,3282911.27 660241.79,3282911.27 660233.36,3282910.35 660233.36,3282910.35 660226.30,3282909.57 660226.30,3282909.57 660219.38,3282908.84 660219.38,3282908.84 660213.03,3282908.15 660213.03,3282908.15 660202.73,3282907.03 660202.73,3282907.03 660194.86,3282906.18 660194.86,3282906.18 660183.78,3282904.97 660183.78,3282904.97 660175.34,3282904.05 660175.34,3282904.05 660165.62,3282903.01 660165.62,3282903.01 660158.31,3282902.20 660158.31,3282902.20 660151.15,3282901.40 660151.15,3282901.40 660145.35,3282900.77 660145.35,3282900.77 660136.00,3282899.73 660136.00,3282899.73 660128.00,3282898.86 660128.00,3282898.86 660119.63,3282897.95 660119.63,3282897.95 660111.47,3282897.07 660111.47,3282897.07 660102.73,3282896.11 660102.73,3282896.11 660094.55,3282895.20 660094.55,3282895.20 660081.75,3282893.81 660081.75,3282893.81 660076.12,3282893.19 660076.12,3282893.19 660064.43,3282891.89 660064.43,3282891.89 660058.30,3282891.19 660058.30,3282891.19 660050.30,3282890.32 660050.30,3282890.32 660041.97,3282889.44 660041.97,3282889.44 660032.56,3282888.40 660032.56,3282888.40 660024.55,3282887.53 660024.55,3282887.53 660014.02,3282886.39 660014.02,3282886.39 660004.88,3282885.38 660004.88,3282885.38 659997.15,3282884.53 659997.15,3282884.53 659986.51,3282883.36 659986.51,3282883.36 659976.53,3282882.26 659976.53,3282882.26 659966.80,3282881.21 659966.80,3282881.21 659958.79,3282880.34 659958.79,3282880.34 659948.04,3282879.17 659948.04,3282879.17 659939.68,3282878.23 659939.68,3282878.23 659929.97,3282877.17 659929.97,3282877.17 659922.10,3282876.32 659922.10,3282876.32 659909.40,3282874.92 659909.40,3282874.92 659899.14,3282873.77 659899.14,3282873.77 659890.27,3282872.79 659890.27,3282872.79 659882.91,3282871.98 659882.91,3282871.98 659873.45,3282870.92 659873.45,3282870.92 659865.44,3282870.05 659865.44,3282870.05 659857.44,3282869.17 659857.44,3282869.17 659851.42,3282868.51 659851.42,3282868.51 659843.53,3282867.64 659843.53,3282867.64 659837.10,3282866.92 659837.10,3282866.92 659827.92,3282865.93 659827.92,3282865.93 659819.09,3282864.97 659819.09,3282864.97 659811.15,3282864.09 659811.15,3282864.09 659800.93,3282862.98 659800.93,3282862.98 659786.50,3282861.41 659786.50,3282861.41 659773.86,3282860.03 659773.86,3282860.03 659762.84,3282858.82 659762.84,3282858.82 659751.15,3282857.56 659751.15,3282857.56 659743.10,3282856.68 659743.10,3282856.68 659730.42,3282855.30 659730.42,3282855.30 659720.43,3282854.22 659720.43,3282854.22 659706.23,3282852.65 659706.23,3282852.65 659695.04,3282851.43 659695.04,3282851.43 659683.41,3282850.16 659683.41,3282850.16 659673.16,3282849.04 659673.16,3282849.04 659661.02,3282847.74 659661.02,3282847.74 659652.24,3282846.81 659652.24,3282846.81 659645.26,3282846.03 659645.26,3282846.03 659632.59,3282844.67 659632.59,3282844.67 659621.93,3282843.50 659621.93,3282843.50 659597.10,3282840.81 659597.10,3282840.81 659595.73,3282840.65 659595.73,3282840.65 659577.73,3282838.70 659577.73,3282838.70 659564.41,3282837.25 659564.41,3282837.25 659550.97,3282835.79 659550.97,3282835.79 659533.04,3282833.83 659533.04,3282833.83 659516.77,3282832.05 659516.77,3282832.05 659501.86,3282830.42 659501.86,3282830.42 659487.59,3282828.88 659487.59,3282828.88 659466.31,3282826.55 659466.31,3282826.55 659453.78,3282825.16 659453.78,3282825.16 659435.71,3282823.20 659435.71,3282823.20 659421.70,3282821.66 659421.70,3282821.66 659404.33,3282819.76 659404.33,3282819.76 659387.38,3282817.88 659387.38,3282817.88 659368.15,3282815.76 659368.15,3282815.76 659353.05,3282814.07 659353.05,3282814.07 659336.62,3282812.26 659336.62,3282812.26 659323.79,3282810.85 659323.79,3282810.85 659309.47,3282809.27 659309.47,3282809.27 659295.88,3282807.78 659295.88,3282807.78 659279.16,3282805.94 659279.16,3282805.94 659259.65,3282803.78 659259.65,3282803.78 659240.04,3282801.61 659240.04,3282801.61 659223.95,3282799.84 659223.95,3282799.84 659206.74,3282797.93 659206.74,3282797.93 659187.03,3282795.79 659187.03,3282795.79 659167.84,3282793.67 659167.84,3282793.67 659150.24,3282791.66 659150.24,3282791.66 659137.00,3282790.22 659137.00,3282790.22 659121.80,3282788.56 659121.80,3282788.56 659105.41,3282786.77 659105.41,3282786.77 659091.70,3282785.31 659091.70,3282785.31 659078.56,3282783.90 659078.56,3282783.90 659066.19,3282782.53 659066.19,3282782.53 659050.44,3282780.83 659050.44,3282780.83 659033.23,3282778.99 659033.23,3282778.99 659015.46,3282777.08 659015.46,3282777.08 659002.14,3282775.65 659002.14,3282775.65 658988.10,3282774.14 658988.10,3282774.14 658975.95,3282772.82 658975.95,3282772.82 658958.31,3282770.94 658958.31,3282770.94 658937.40,3282768.64 658937.40,3282768.64 658919.61,3282766.70 658919.61,3282766.70 658903.44,3282764.95 658903.44,3282764.95 658884.19,3282762.82 658884.19,3282762.82 658864.21,3282760.64 658864.21,3282760.64 658844.10,3282758.42 658844.10,3282758.42 658824.16,3282756.23 658824.16,3282756.23 658804.16,3282754.01 658804.16,3282754.01 658782.38,3282751.61 658782.38,3282751.61 658760.95,3282749.28 658760.95,3282749.28 658734.27,3282746.27 658734.27,3282746.27 658702.40,3282742.75 658702.40,3282742.75 658683.19,3282740.67 658683.19,3282740.67 658659.88,3282738.11 658659.88,3282738.11 658634.87,3282735.36 658634.87,3282735.36 658606.47,3282732.23 658606.47,3282732.23 658580.56,3282729.40 658580.56,3282729.40 658566.03,3282727.81 658566.03,3282727.81 658553.73,3282726.46 658553.73,3282726.46 658535.06,3282724.40 658535.06,3282724.40 658518.44,3282722.57 658518.44,3282722.57 658504.61,3282721.04 658504.61,3282721.04 658484.04,3282718.74 658484.04,3282718.74 658465.56,3282716.70 658465.56,3282716.70 658451.71,3282715.15 658451.71,3282715.15 658435.63,3282713.39 658435.63,3282713.39 658425.49,3282712.30 658425.49,3282712.30 658415.14,3282711.18 658415.14,3282711.18 658405.17,3282710.11 658405.17,3282710.11 658396.16,3282709.10 658396.16,3282709.10 658382.91,3282707.65 658382.91,3282707.65 658366.70,3282705.89 658366.70,3282705.89 658349.01,3282703.99 658349.01,3282703.99 658330.05,3282702.01 658330.05,3282702.01 658305.56,3282699.32 658305.56,3282699.32 658283.24,3282696.88 658283.24,3282696.88 658267.58,3282695.19 658267.58,3282695.19 658251.27,3282693.39 658251.27,3282693.39 658234.26,3282691.53 658234.26,3282691.53 658215.76,3282689.52 658215.76,3282689.52 658196.08,3282687.36 658196.08,3282687.36 658174.33,3282684.98 658174.33,3282684.98 658156.15,3282682.97 658156.15,3282682.97 658141.36,3282681.35 658141.36,3282681.35 658127.05,3282679.79 658127.05,3282679.79 658111.88,3282678.13 658111.88,3282678.13 658091.76,3282675.92 658091.76,3282675.92 658079.36,3282674.56 658079.36,3282674.56 658068.25,3282673.38 658068.25,3282673.38 658058.93,3282672.35 658058.93,3282672.35 658047.97,3282671.14 658047.97,3282671.14 658037.20,3282669.94 658037.20,3282669.94 658027.96,3282668.93 658027.96,3282668.93 658021.28,3282668.19 658021.28,3282668.19 658013.07,3282667.31 658013.07,3282667.31 658002.36,3282666.09 658002.36,3282666.09 657988.65,3282664.59 657988.65,3282664.59 657976.26,3282663.23 657976.26,3282663.23 657958.61,3282661.29 657958.61,3282661.29 657943.99,3282659.68 657943.99,3282659.68 657924.92,3282657.58 657924.92,3282657.58 657914.38,3282656.42 657914.38,3282656.42 657901.14,3282654.95 657901.14,3282654.95 657888.40,3282653.58 657888.40,3282653.58 657875.90,3282652.20 657875.90,3282652.20 657863.40,3282650.85 657863.40,3282650.85 657847.70,3282649.10 657847.70,3282649.10 657833.71,3282647.58 657833.71,3282647.58 657822.88,3282646.41 657822.88,3282646.41 657810.10,3282645.01 657810.10,3282645.01 657797.79,3282643.63 657797.79,3282643.63 657785.97,3282642.32 657785.97,3282642.32 657772.41,3282640.84 657772.41,3282640.84 657760.92,3282639.58 657760.92,3282639.58 657751.04,3282638.50 657751.04,3282638.50 657743.35,3282637.64 657743.35,3282637.64 657732.66,3282636.45 657732.66,3282636.45 657722.94,3282635.40 657722.94,3282635.40 657709.73,3282633.99 657709.73,3282633.99 657697.46,3282632.65 657697.46,3282632.65 657685.42,3282631.34 657685.42,3282631.34 657671.21,3282629.79 657671.21,3282629.79 657659.72,3282628.53 657659.72,3282628.53 657649.41,3282627.39 657649.41,3282627.39 657635.76,3282625.92 657635.76,3282625.92 657626.63,3282624.90 657626.63,3282624.90 657617.65,3282623.91 657617.65,3282623.91 657609.71,3282623.02 657609.71,3282623.02 657599.60,3282621.91 657599.60,3282621.91 657585.46,3282620.36 657585.46,3282620.36 657565.26,3282618.14 657565.26,3282618.14 657548.27,3282616.30 657548.27,3282616.30 657537.12,3282615.07 657537.12,3282615.07 657523.45,3282613.60 657523.45,3282613.60 657511.74,3282612.29 657511.74,3282612.29 657499.97,3282611.02 657499.97,3282611.02 657490.05,3282609.91 657490.05,3282609.91 657478.58,3282608.65 657478.58,3282608.65 657467.30,3282607.42 657467.30,3282607.42 657456.60,3282606.24 657456.60,3282606.24 657448.69,3282605.39 657448.69,3282605.39 657440.46,3282604.47 657440.46,3282604.47 657430.44,3282603.36 657430.44,3282603.36 657420.59,3282602.31 657420.59,3282602.31 657411.28,3282601.29 657411.28,3282601.29 657399.35,3282599.97 657399.35,3282599.97 657382.67,3282598.17 657382.67,3282598.17 657367.06,3282596.44 657367.06,3282596.44 657355.89,3282595.21 657355.89,3282595.21 657344.46,3282593.93 657344.46,3282593.93 657327.21,3282592.06 657327.21,3282592.06 657313.95,3282590.62 657313.95,3282590.62 657300.58,3282589.17 657300.58,3282589.17 657286.65,3282587.64 657286.65,3282587.64 657270.90,3282585.91 657270.90,3282585.91 657258.55,3282584.57 657258.55,3282584.57 657244.79,3282583.05 657244.79,3282583.05 657234.55,3282581.92 657234.55,3282581.92 657220.23,3282580.35 657220.23,3282580.35 657205.74,3282578.74 657205.74,3282578.74 657194.22,3282577.47 657194.22,3282577.47 657181.80,3282576.12 657181.80,3282576.12 657169.46,3282574.76 657169.46,3282574.76 657155.79,3282573.26 657155.79,3282573.26 657144.80,3282572.07 657144.80,3282572.07 657129.90,3282570.42 657129.90,3282570.42 657119.68,3282569.31 657119.68,3282569.31 657109.49,3282568.16 657109.49,3282568.16 657094.29,3282566.50 657094.29,3282566.50 657081.81,3282565.12 657081.81,3282565.12 657067.26,3282563.52 657067.26,3282563.52 657053.73,3282562.05 657053.73,3282562.05 657038.77,3282560.40 657038.77,3282560.40 657026.91,3282559.10 657026.91,3282559.10 657014.80,3282557.74 657014.80,3282557.74 657003.96,3282556.54 657003.96,3282556.54 656994.13,3282555.51 656994.13,3282555.51 656982.02,3282554.21 656982.02,3282554.21 656976.54,3282553.62 656976.54,3282553.62 656963.87,3282552.24 656963.87,3282552.24 656951.66,3282550.93 656951.66,3282550.93 656935.71,3282549.16 656935.71,3282549.16 656922.86,3282547.77 656922.86,3282547.77 656906.97,3282546.02 656906.97,3282546.02 656893.02,3282544.49 656893.02,3282544.49 656879.52,3282543.03 656879.52,3282543.03 656868.74,3282541.84 656868.74,3282541.84 656853.14,3282540.15 656853.14,3282540.15 656839.04,3282538.63 656839.04,3282538.63 656825.27,3282537.12 656825.27,3282537.12 656809.07,3282535.36 656809.07,3282535.36 656799.42,3282534.30 656799.42,3282534.30 656787.63,3282533.02 656787.63,3282533.02 656778.47,3282532.02 656778.47,3282532.02 656768.56,3282530.94 656768.56,3282530.94 656757.19,3282529.68 656757.19,3282529.68 656743.03,3282528.13 656743.03,3282528.13 656731.78,3282526.90 656731.78,3282526.90 656717.60,3282525.34 656717.60,3282525.34 656704.38,3282523.91 656704.38,3282523.91 656692.22,3282522.56 656692.22,3282522.56 656680.68,3282521.31 656680.68,3282521.31 656669.14,3282520.05 656669.14,3282520.05 656657.91,3282518.81 656657.91,3282518.81 656645.52,3282517.46 656645.52,3282517.46 656634.35,3282516.25 656634.35,3282516.25 656627.17,3282515.47 656627.17,3282515.47 656618.88,3282514.59 656618.88,3282514.59 656608.08,3282513.43 656608.08,3282513.43 656594.68,3282511.94 656594.68,3282511.94 656582.38,3282510.57 656582.38,3282510.57 656572.35,3282509.47 656572.35,3282509.47 656562.10,3282508.34 656562.10,3282508.34 656552.59,3282507.29 656552.59,3282507.29 656541.47,3282506.06 656541.47,3282506.06 656529.49,3282504.74 656529.49,3282504.74 656518.13,3282503.50 656518.13,3282503.50 656506.03,3282502.13 656506.03,3282502.13 656493.82,3282500.78 656493.82,3282500.78 656483.01,3282499.59 656483.01,3282499.59 656469.53,3282498.14 656469.53,3282498.14 656451.38,3282496.12 656451.38,3282496.12 656430.91,3282493.89 656430.91,3282493.89 656411.25,3282491.77 656411.25,3282491.77 656391.82,3282489.59 656391.82,3282489.59 656377.24,3282488.03 656377.24,3282488.03 656357.66,3282485.86 656357.66,3282485.86 656337.79,3282483.68 656337.79,3282483.68 656320.93,3282481.80 656320.93,3282481.80 656306.95,3282480.29 656306.95,3282480.29 656292.66,3282478.75 656292.66,3282478.75 656281.95,3282477.55 656281.95,3282477.55 656268.64,3282476.07 656268.64,3282476.07 656249.90,3282474.00 656249.90,3282474.00 656238.65,3282472.73 656238.65,3282472.73 656226.07,3282471.30 656226.07,3282471.30 656214.68,3282469.98 656214.68,3282469.98 656203.39,3282468.65 656203.39,3282468.65 656192.60,3282467.35 656192.60,3282467.35 656180.53,3282465.92 656180.53,3282465.92 656169.91,3282464.63 656169.91,3282464.63 656160.68,3282463.53 656160.68,3282463.53 656148.85,3282462.05 656148.85,3282462.05 656138.94,3282460.81 656138.94,3282460.81 656127.31,3282459.34 656127.31,3282459.34 656116.64,3282457.94 656116.64,3282457.94 656107.16,3282456.61 656107.16,3282456.61 656090.96,3282454.30 656090.96,3282454.30 656077.79,3282452.37 656077.79,3282452.37 656064.19,3282450.31 656064.19,3282450.31 656048.74,3282447.86 656048.74,3282447.86 656035.19,3282445.66 656035.19,3282445.66 656023.15,3282443.68 656023.15,3282443.68 656012.51,3282441.88 656012.51,3282441.88 655999.97,3282439.71 655999.97,3282439.71 655986.25,3282437.34 655986.25,3282437.34 655975.45,3282435.45 655975.45,3282435.45 655960.45,3282432.81 655960.45,3282432.81 655946.14,3282430.22 655946.14,3282430.22 655937.75,3282428.73 655937.75,3282428.73 655922.76,3282425.96 655922.76,3282425.96 655911.91,3282423.96 655911.91,3282423.96 655900.54,3282421.86 655900.54,3282421.86 655889.30,3282419.81 655889.30,3282419.81 655876.69,3282417.46 655876.69,3282417.46 655866.16,3282415.46 655866.16,3282415.46 655855.53,3282413.50 655855.53,3282413.50 655843.39,3282411.24 655843.39,3282411.24 655830.97,3282408.95 655830.97,3282408.95 655819.56,3282406.80 655819.56,3282406.80 655805.53,3282404.23 655805.53,3282404.23 655793.89,3282402.10 655793.89,3282402.10 655781.69,3282399.82 655781.69,3282399.82 655770.42,3282397.75 655770.42,3282397.75 655757.10,3282395.29 655757.10,3282395.29 655742.79,3282392.70 655742.79,3282392.70 655730.66,3282390.47 655730.66,3282390.47 655718.29,3282388.17 655718.29,3282388.17 655706.11,3282385.93 655706.11,3282385.93 655696.85,3282384.22 655696.85,3282384.22 655686.42,3282382.28 655686.42,3282382.28 655678.02,3282380.72 655678.02,3282380.72 655665.72,3282378.44 655665.72,3282378.44 655652.28,3282375.94 655652.28,3282375.94 655639.76,3282373.64 655639.76,3282373.64 655627.87,3282371.43 655627.87,3282371.43 655612.69,3282368.64 655612.69,3282368.64 655593.12,3282365.04 655593.12,3282365.04 655578.66,3282362.35 655578.66,3282362.35 655561.88,3282359.26 655561.88,3282359.26 655545