<?xml version='1.0' encoding='utf-8'?>
<nodes>
    <node id="node_620_start" x="741554.5273881871" y="3289237.2546950835" type="priority" />
    <node id="node_620_end" x="741580.229804421" y="3289245.3024077476" type="priority" />
    <node id="node_624_start" x="740458.0490822515" y="3288538.8220140315" type="priority" />
    <node id="node_625_start" x="741196.3095201391" y="3289034.271129508" type="priority" />
    <node id="node_625_end" x="741349.9123287627" y="3289147.1806079573" type="priority" />
    <node id="node_628_start" x="741447.9614137113" y="3289199.2070245333" type="priority" />
    <node id="node_632_end" x="741289.9776394133" y="3289072.411447732" type="priority" />
    <node id="node_633_end" x="741401.2589791323" y="3289176.8013979523" type="priority" />
    <node id="node_653_start" x="745725.6304462459" y="3290150.3841441553" type="priority" />
    <node id="node_653_end" x="746142.7212163415" y="3290207.536265017" type="priority" />
    <node id="node_887_end" x="746215.5352668515" y="3290217.361610847" type="priority" />
    <node id="node_889_start" x="746559.9458155436" y="3290242.152675616" type="priority" />
    <node id="node_893_end" x="747797.1786356262" y="3290475.5443522558" type="priority" />
    <node id="node_894_end" x="747243.1269391389" y="3290324.307225477" type="priority" />
    <node id="node_918_start" x="746385.4216720994" y="3290203.0347353304" type="priority" />
    <node id="node_918_end" x="746507.9243739247" y="3290231.316223456" type="priority" />
    <node id="node_920_start" x="745439.4309305942" y="3290094.7017518394" type="priority" />
    <node id="node_921_start" x="741463.0305222786" y="3289155.3479307154" type="priority" />
    <node id="node_924_start" x="742591.5347493507" y="3289545.6366475504" type="priority" />
    <node id="node_926_end" x="743095.7049824008" y="3289639.9122894024" type="priority" />
    <node id="node_927_end" x="742970.968195182" y="3289585.213059535" type="priority" />
    <node id="node_929_end" x="742303.4360114218" y="3289468.118458404" type="priority" />
    <node id="node_930_start" x="742302.3329994502" y="3289475.796190986" type="priority" />
    <node id="node_931_end" x="743122.6745986347" y="3289645.030861485" type="priority" />
    <node id="node_932_start" x="743751.7292764022" y="3289776.616561877" type="priority" />
    <node id="node_933_end" x="743159.8359971531" y="3289652.22081153" type="priority" />
    <node id="node_934_start" x="743160.9096688558" y="3289649.1009456334" type="priority" />
    <node id="node_935_end" x="746506.9006905966" y="3290245.5756007335" type="priority" />
    <node id="node_936_start" x="746506.4919042862" y="3290247.134992045" type="priority" />
    <node id="node_640_start" x="740320.5217260537" y="3288489.986456571" type="priority" />
    <node id="node_652_start" x="747797.3752802416" y="3290474.838822502" type="priority" />
    <node id="node_652_end" x="748062.1828777686" y="3290542.926225371" type="priority" />
    <node id="junction_8" x="0.0" y="0.0" type="priority" />
    <node id="junction_64" x="0.0" y="0.0" type="priority" />
    <node id="junction_59" x="0.0" y="0.0" type="priority" />
    <node id="junction_108" x="0.0" y="0.0" type="priority" />
    <node id="junction_4" x="0.0" y="0.0" type="priority" />
    <node id="junction_10" x="0.0" y="0.0" type="priority" />
    <node id="junction_11" x="0.0" y="0.0" type="priority" />
    <node id="junction_67" x="0.0" y="0.0" type="priority" />
    <node id="junction_60" x="0.0" y="0.0" type="priority" />
    <node id="junction_9" x="0.0" y="0.0" type="priority" />
    <node id="junction_65" x="0.0" y="0.0" type="priority" />
    <node id="junction_5" x="0.0" y="0.0" type="priority" />
    <node id="junction_68" x="0.0" y="0.0" type="priority" />
    <node id="junction_12" x="0.0" y="0.0" type="priority" />
    <node id="junction_66" x="0.0" y="0.0" type="priority" />
    <node id="junction_61" x="0.0" y="0.0" type="priority" />
    <node id="junction_13" x="0.0" y="0.0" type="priority" />
    <node id="junction_69" x="0.0" y="0.0" type="priority" />
    <node id="junction_2" x="0.0" y="0.0" type="priority" />
    <node id="junction_58" x="0.0" y="0.0" type="priority" />
    <node id="junction_15" x="0.0" y="0.0" type="priority" />
    <node id="junction_16" x="0.0" y="0.0" type="priority" />
    <node id="junction_71" x="0.0" y="0.0" type="priority" />
    <node id="junction_14" x="0.0" y="0.0" type="priority" />
    <node id="junction_72" x="0.0" y="0.0" type="priority" />
    <node id="junction_70" x="0.0" y="0.0" type="priority" />
    <node id="junction_1" x="0.0" y="0.0" type="priority" />
    <node id="junction_73" x="0.0" y="0.0" type="priority" />
    <node id="junction_17" x="0.0" y="0.0" type="priority" />
    <node id="junction_18" x="0.0" y="0.0" type="priority" />
    <node id="junction_19" x="0.0" y="0.0" type="priority" />
    <node id="junction_74" x="0.0" y="0.0" type="priority" />
    <node id="junction_76" x="0.0" y="0.0" type="priority" />
    <node id="junction_7" x="0.0" y="0.0" type="priority" />
    <node id="junction_20" x="0.0" y="0.0" type="priority" />
    <node id="junction_75" x="0.0" y="0.0" type="priority" />
    <node id="junction_21" x="0.0" y="0.0" type="priority" />
    <node id="junction_77" x="0.0" y="0.0" type="priority" />
    <node id="junction_78" x="0.0" y="0.0" type="priority" />
    <node id="junction_62" x="0.0" y="0.0" type="priority" />
    <node id="junction_22" x="0.0" y="0.0" type="priority" />
    <node id="junction_79" x="0.0" y="0.0" type="priority" />
    <node id="junction_23" x="0.0" y="0.0" type="priority" />
    <node id="junction_3" x="0.0" y="0.0" type="priority" />
    <node id="junction_80" x="0.0" y="0.0" type="priority" />
    <node id="junction_24" x="0.0" y="0.0" type="priority" />
    <node id="junction_25" x="0.0" y="0.0" type="priority" />
    <node id="junction_81" x="0.0" y="0.0" type="priority" />
    <node id="junction_26" x="0.0" y="0.0" type="priority" />
    <node id="junction_82" x="0.0" y="0.0" type="priority" />
    <node id="junction_27" x="0.0" y="0.0" type="priority" />
    <node id="junction_83" x="0.0" y="0.0" type="priority" />
    <node id="junction_28" x="0.0" y="0.0" type="priority" />
    <node id="junction_84" x="0.0" y="0.0" type="priority" />
    <node id="junction_85" x="0.0" y="0.0" type="priority" />
    <node id="junction_29" x="0.0" y="0.0" type="priority" />
    <node id="junction_86" x="0.0" y="0.0" type="priority" />
    <node id="junction_87" x="0.0" y="0.0" type="priority" />
    <node id="junction_30" x="0.0" y="0.0" type="priority" />
    <node id="junction_6" x="0.0" y="0.0" type="priority" />
    <node id="junction_88" x="0.0" y="0.0" type="priority" />
    <node id="junction_31" x="0.0" y="0.0" type="priority" />
    <node id="junction_89" x="0.0" y="0.0" type="priority" />
    <node id="junction_32" x="0.0" y="0.0" type="priority" />
    <node id="junction_33" x="0.0" y="0.0" type="priority" />
    <node id="junction_91" x="0.0" y="0.0" type="priority" />
    <node id="junction_34" x="0.0" y="0.0" type="priority" />
    <node id="junction_90" x="0.0" y="0.0" type="priority" />
    <node id="junction_92" x="0.0" y="0.0" type="priority" />
    <node id="junction_37" x="0.0" y="0.0" type="priority" />
    <node id="junction_36" x="0.0" y="0.0" type="priority" />
    <node id="junction_35" x="0.0" y="0.0" type="priority" />
    <node id="junction_94" x="0.0" y="0.0" type="priority" />
    <node id="junction_93" x="0.0" y="0.0" type="priority" />
    <node id="junction_38" x="0.0" y="0.0" type="priority" />
    <node id="junction_96" x="0.0" y="0.0" type="priority" />
    <node id="junction_39" x="0.0" y="0.0" type="priority" />
    <node id="junction_111" x="0.0" y="0.0" type="priority" />
    <node id="junction_99" x="0.0" y="0.0" type="priority" />
    <node id="junction_97" x="0.0" y="0.0" type="priority" />
    <node id="junction_41" x="0.0" y="0.0" type="priority" />
    <node id="junction_40" x="0.0" y="0.0" type="priority" />
    <node id="junction_106" x="0.0" y="0.0" type="priority" />
    <node id="junction_100" x="0.0" y="0.0" type="priority" />
    <node id="junction_42" x="0.0" y="0.0" type="priority" />
    <node id="junction_101" x="0.0" y="0.0" type="priority" />
    <node id="junction_47" x="0.0" y="0.0" type="priority" />
    <node id="junction_43" x="0.0" y="0.0" type="priority" />
    <node id="junction_98" x="0.0" y="0.0" type="priority" />
    <node id="junction_103" x="0.0" y="0.0" type="priority" />
    <node id="junction_44" x="0.0" y="0.0" type="priority" />
    <node id="junction_102" x="0.0" y="0.0" type="priority" />
    <node id="junction_104" x="0.0" y="0.0" type="priority" />
    <node id="junction_63" x="0.0" y="0.0" type="priority" />
    <node id="junction_105" x="0.0" y="0.0" type="priority" />
    <node id="junction_45" x="0.0" y="0.0" type="priority" />
    <node id="junction_46" x="0.0" y="0.0" type="priority" />
    <node id="junction_48" x="0.0" y="0.0" type="priority" />
    <node id="junction_107" x="0.0" y="0.0" type="priority" />
    <node id="junction_49" x="0.0" y="0.0" type="priority" />
    <node id="junction_109" x="0.0" y="0.0" type="priority" />
    <node id="junction_50" x="0.0" y="0.0" type="priority" />
    <node id="junction_52" x="0.0" y="0.0" type="priority" />
    <node id="junction_54" x="0.0" y="0.0" type="priority" />
    <node id="junction_55" x="0.0" y="0.0" type="priority" />
    <node id="junction_57" x="0.0" y="0.0" type="priority" />
    <node id="junction_114" x="0.0" y="0.0" type="priority" />
    <node id="junction_56" x="0.0" y="0.0" type="priority" />
    <node id="junction_95" x="741104.1672081129" y="3288961.089392537" type="priority" />
    <node id="junction_110" x="747113.9716957152" y="3290326.1874245736" type="priority" />
    <node id="junction_51" x="746588.1303432462" y="3290254.8186406675" type="priority" />
    <node id="junction_113" x="742748.259231533" y="3289567.1378194434" type="priority" />
    <node id="j_merge_start_53" x="741807.8485105541" y="3289272.79827604" type="priority" />
    <node id="j_merge_end_53" x="742197.8893920018" y="3289437.7556767105" type="priority" />
</nodes>