<?xml version="1.0" encoding="UTF-8"?>

<!-- generated on 2025-10-19 17:35:18 by Eclipse SUMO netconvert Version 1.23.1
<netconvertConfiguration xmlns:xsi="http://www.w3.org/2001/XMLSchema-instance" xsi:noNamespaceSchemaLocation="http://sumo.dlr.de/xsd/netconvertConfiguration.xsd">

    <input>
        <node-files value="/home/sdai/harry/TeraSim/jupiter/eb/jupiter_eb_tiles/tile_0113/tile_0113.nod.xml"/>
        <edge-files value="/home/sdai/harry/TeraSim/jupiter/eb/jupiter_eb_tiles/tile_0113/tile_0113.edg.xml"/>
        <connection-files value="/home/sdai/harry/TeraSim/jupiter/eb/jupiter_eb_tiles/tile_0113/tile_0113.con.xml"/>
    </input>

    <output>
        <output-file value="/home/sdai/harry/TeraSim/jupiter/eb/jupiter_eb_tiles/tile_0113/tile_0113.net.xml"/>
        <output.street-names value="true"/>
        <output.original-names value="true"/>
    </output>

    <processing>
        <geometry.remove value="false"/>
        <geometry.min-dist value="0.5"/>
        <edges.join value="false"/>
    </processing>

    <junctions>
        <no-internal-links value="false"/>
        <no-turnarounds value="true"/>
        <junctions.join value="true"/>
        <junctions.join-dist value="10"/>
        <junctions.corner-detail value="5"/>
        <junctions.internal-link-detail value="5"/>
        <junctions.limit-turn-speed value="5.5"/>
        <rectangular-lane-cut value="true"/>
        <check-lane-foes.all value="true"/>
    </junctions>

</netconvertConfiguration>
-->

<net version="1.20" junctionCornerDetail="5" junctionLinkDetail="5" rectangularLaneCut="true" limitTurnSpeed="5.50" checkLaneFoesAll="1" xmlns:xsi="http://www.w3.org/2001/XMLSchema-instance" xsi:noNamespaceSchemaLocation="http://sumo.dlr.de/xsd/net_file.xsd">

    <location netOffset="-740458.05,-3288538.82" convBoundary="0.00,0.00,7339.33,1936.72" origBoundary="0.00,0.00,748062.18,3290542.93" projParameter="!"/>

    <edge id=":j_merge_end_53_0" function="internal">
        <lane id=":j_merge_end_53_0_0" index="0" speed="13.89" length="51.18" width="3.66" shape="1698.09,867.37 1708.62,873.59 1719.13,882.59 1729.68,891.43 1740.37,897.19"/>
        <lane id=":j_merge_end_53_0_1" index="1" speed="13.89" length="51.18" width="3.66" shape="1695.59,874.25 1706.51,879.39 1717.88,886.03 1729.29,892.51 1740.37,897.19"/>
    </edge>
    <edge id=":j_merge_start_53_0" function="internal">
        <lane id=":j_merge_start_53_0_0" index="0" speed="13.89" length="100.46" width="3.66" shape="1305.10,716.65 1399.59,750.77"/>
    </edge>
    <edge id=":j_merge_start_53_1" function="internal">
        <lane id=":j_merge_start_53_1_0" index="0" speed="13.89" length="111.50" width="3.66" shape="1291.78,756.99 1311.09,755.51 1345.36,749.58 1380.47,744.11 1402.29,743.97"/>
    </edge>
    <edge id=":junction_110_0" function="internal">
        <lane id=":junction_110_0_0" index="0" speed="13.89" length="51.21" width="3.66" shape="6610.76,1772.62 6661.72,1777.62"/>
    </edge>
    <edge id=":junction_110_1" function="internal">
        <lane id=":junction_110_1_0" index="0" speed="13.89" length="51.92" width="3.66" shape="6610.27,1776.25 6661.74,1783.17"/>
        <lane id=":junction_110_1_1" index="1" speed="13.89" length="51.92" width="3.66" shape="6609.78,1779.88 6661.24,1786.80"/>
        <lane id=":junction_110_1_2" index="2" disallow="all" speed="13.89" length="51.92" width="3.66" shape="6609.29,1783.51 6660.73,1790.42"/>
    </edge>
    <edge id=":junction_113_0" function="internal">
        <lane id=":junction_113_0_0" index="0" speed="13.89" length="192.22" width="3.66" shape="2194.23,1005.89 2385.31,1026.79"/>
    </edge>
    <edge id=":junction_113_1" function="internal">
        <lane id=":junction_113_1_0" index="0" speed="13.89" length="193.25" width="3.66" shape="2193.54,1009.49 2383.40,1045.40"/>
        <lane id=":junction_113_1_1" index="1" speed="13.89" length="193.25" width="3.66" shape="2192.84,1013.08 2382.72,1049.00"/>
        <lane id=":junction_113_1_2" index="2" disallow="all" speed="13.89" length="193.25" width="3.66" shape="2192.14,1016.67 2382.04,1052.60"/>
    </edge>
    <edge id=":junction_51_0" function="internal">
        <lane id=":junction_51_0_0" index="0" speed="13.89" length="58.86" width="3.66" shape="6102.12,1701.51 6160.08,1711.12"/>
        <lane id=":junction_51_0_1" index="1" speed="13.89" length="58.86" width="3.66" shape="6102.12,1701.51 6159.58,1714.75"/>
    </edge>
    <edge id=":junction_51_2" function="internal">
        <lane id=":junction_51_2_0" index="0" speed="13.89" length="58.98" width="3.66" shape="6101.08,1706.82 6159.58,1714.75"/>
        <lane id=":junction_51_2_1" index="1" speed="13.89" length="58.98" width="3.66" shape="6100.62,1710.45 6159.07,1718.37"/>
        <lane id=":junction_51_2_2" index="2" disallow="all" speed="13.89" length="58.98" width="3.66" shape="6100.16,1714.08 6158.57,1722.00"/>
    </edge>
    <edge id=":junction_95_0" function="internal">
        <lane id=":junction_95_0_0" index="0" speed="13.89" length="73.95" width="3.66" shape="610.34,391.19 624.33,401.15 643.80,414.39 661.83,426.42 671.49,432.76"/>
    </edge>
    <edge id=":junction_95_1" function="internal">
        <lane id=":junction_95_1_0" index="0" speed="13.89" length="74.01" width="3.66" shape="610.34,391.19 669.20,436.06"/>
        <lane id=":junction_95_1_1" index="1" speed="13.89" length="74.01" width="3.66" shape="608.12,394.10 666.98,438.97"/>
    </edge>
    <edge id=":node_620_end_0" function="internal">
        <lane id=":node_620_end_0_0" index="0" speed="13.89" length="2.99" width="3.66" shape="1122.38,700.79 1125.23,701.67"/>
        <lane id=":node_620_end_0_1" index="1" speed="13.89" length="2.99" width="3.66" shape="1121.28,704.28 1124.16,705.17"/>
    </edge>
    <edge id=":node_620_start_0" function="internal">
        <lane id=":node_620_start_0_0" index="0" speed="13.89" length="0.30" width="3.66" shape="1097.99,693.15 1098.29,693.24"/>
        <lane id=":node_620_start_0_1" index="1" speed="13.89" length="0.30" width="3.66" shape="1096.90,696.64 1097.17,696.73"/>
    </edge>
    <edge id=":node_625_end_0" function="internal">
        <lane id=":node_625_end_0_0" index="0" speed="13.89" length="0.30" width="3.66" shape="894.68,603.65 894.94,603.81"/>
        <lane id=":node_625_end_0_1" index="1" speed="13.89" length="0.30" width="3.66" shape="892.72,606.74 892.97,606.90"/>
    </edge>
    <edge id=":node_625_start_0" function="internal">
        <lane id=":node_625_start_0_0" index="0" speed="13.89" length="3.00" width="3.66" shape="740.39,490.17 742.78,491.99"/>
        <lane id=":node_625_start_0_1" index="1" speed="13.89" length="3.00" width="3.66" shape="738.18,493.09 740.56,494.90"/>
    </edge>
    <edge id=":node_628_start_0" function="internal">
        <lane id=":node_628_start_0_0" index="0" speed="13.89" length="0.30" width="3.66" shape="992.03,655.32 992.30,655.44"/>
        <lane id=":node_628_start_0_1" index="1" speed="13.89" length="0.30" width="3.66" shape="990.52,658.66 990.80,658.78"/>
    </edge>
    <edge id=":node_633_end_0" function="internal">
        <lane id=":node_633_end_0_0" index="0" speed="13.89" length="0.30" width="3.66" shape="945.59,633.03 945.86,633.17"/>
        <lane id=":node_633_end_0_1" index="1" speed="13.89" length="0.30" width="3.66" shape="943.92,636.29 944.18,636.42"/>
    </edge>
    <edge id=":node_653_end_0" function="internal">
        <lane id=":node_653_end_0_0" index="0" speed="13.89" length="0.30" width="3.66" shape="5685.24,1663.26 5685.55,1663.30"/>
        <lane id=":node_653_end_0_1" index="1" speed="13.89" length="0.30" width="3.66" shape="5684.77,1666.89 5685.05,1666.93"/>
    </edge>
    <edge id=":node_653_start_0" function="internal">
        <lane id=":node_653_start_0_0" index="0" speed="13.89" length="0.30" width="3.66" shape="5268.42,1606.13 5268.71,1606.18"/>
        <lane id=":node_653_start_0_1" index="1" speed="13.89" length="0.30" width="3.66" shape="5267.76,1609.73 5268.06,1609.79"/>
    </edge>
    <edge id=":node_887_end_0" function="internal">
        <lane id=":node_887_end_0_0" index="0" speed="13.89" length="3.00" width="3.66" shape="5756.73,1672.90 5759.70,1673.30"/>
        <lane id=":node_887_end_0_1" index="1" speed="13.89" length="3.00" width="3.66" shape="5756.25,1676.53 5759.22,1676.92"/>
    </edge>
    <edge id=":node_889_start_0" function="internal">
        <lane id=":node_889_start_0_0" index="0" speed="13.89" length="0.22" width="3.66" shape="6102.13,1701.51 6101.92,1701.48"/>
    </edge>
    <edge id=":node_918_end_0" function="internal">
        <lane id=":node_918_end_0_0" index="0" speed="13.89" length="0.29" width="3.66" shape="6050.14,1690.68 6050.42,1690.75"/>
    </edge>
    <edge id=":node_920_start_0" function="internal">
        <lane id=":node_920_start_0_0" index="0" speed="13.89" length="0.29" width="3.66" shape="4982.27,1550.46 4982.58,1550.52"/>
        <lane id=":node_920_start_0_1" index="1" speed="13.89" length="0.29" width="3.66" shape="4981.60,1554.06 4981.86,1554.11"/>
    </edge>
    <edge id=":node_924_start_0" function="internal">
        <lane id=":node_924_start_0_0" index="0" speed="13.89" length="0.30" width="3.66" shape="2135.97,994.25 2136.24,994.31"/>
        <lane id=":node_924_start_0_1" index="1" speed="13.89" length="0.30" width="3.66" shape="2135.21,997.83 2135.50,997.89"/>
        <lane id=":node_924_start_0_2" index="2" speed="13.89" length="0.30" width="3.66" shape="2134.45,1001.41 2134.76,1001.48"/>
    </edge>
    <edge id=":node_926_end_0" function="internal">
        <lane id=":node_926_end_0_0" index="0" speed="13.89" length="0.30" width="3.66" shape="2639.19,1092.07 2639.49,1092.13"/>
        <lane id=":node_926_end_0_1" index="1" speed="13.89" length="0.30" width="3.66" shape="2638.52,1095.67 2638.81,1095.72"/>
    </edge>
    <edge id=":node_931_end_0" function="internal">
        <lane id=":node_931_end_0_0" index="0" speed="13.89" length="0.30" width="3.66" shape="2666.21,1097.20 2666.52,1097.26"/>
        <lane id=":node_931_end_0_1" index="1" speed="13.89" length="0.30" width="3.66" shape="2665.53,1100.79 2665.81,1100.85"/>
    </edge>
    <edge id=":node_932_start_0" function="internal">
        <lane id=":node_932_start_0_0" index="0" speed="13.89" length="3.00" width="3.66" shape="3293.22,1232.13 3296.17,1232.68"/>
        <lane id=":node_932_start_0_1" index="1" speed="13.89" length="3.00" width="3.66" shape="3292.55,1235.72 3295.49,1236.28"/>
    </edge>

    <edge id="620.0" from="node_620_start" to="node_620_end" priority="-1" type="town" shape="1096.48,698.43 1102.00,700.20 1112.18,703.33 1122.18,706.48">
        <lane id="620.0_0" index="0" disallow="all" speed="13.89" length="25.25" width="3.66" shape="1099.40,689.76 1104.74,691.47 1114.90,694.59 1123.48,697.30" type="shoulder"/>
        <lane id="620.0_1" index="1" speed="13.89" length="25.25" width="3.66" shape="1098.29,693.24 1103.65,694.96 1113.81,698.09 1122.38,700.79"/>
        <lane id="620.0_2" index="2" speed="13.89" length="25.25" width="3.66" shape="1097.17,696.73 1102.55,698.45 1112.72,701.58 1121.28,704.28"/>
    </edge>
    <edge id="624.0" from="node_624_start" to="junction_95" priority="-1" type="town" shape="0.00,0.00 1.62,0.58 30.43,10.70 55.69,19.96 78.17,28.76 86.07,31.96 98.54,37.16 110.36,42.35 126.16,49.57 143.75,58.03 157.73,65.29 167.37,70.48 179.67,77.48 191.94,84.85 198.64,89.04 208.02,95.01 215.41,99.83 222.70,104.67 230.68,110.14 240.90,117.40 250.40,124.31 260.59,131.85 271.61,140.04 289.05,153.14 302.53,163.37 315.85,173.44 325.47,180.81 338.45,190.74 351.78,200.91 369.59,214.48 384.51,225.79 396.19,234.73 407.27,243.21 422.38,254.75 435.80,264.93 442.04,269.72 458.68,282.36 475.77,295.41 493.28,308.78 515.40,325.67 541.59,345.72 564.21,362.91 585.85,379.42 607.01,395.56">
        <lane id="624.0_0" index="0" disallow="all" speed="13.89" length="730.60" width="3.66" shape="3.09,-8.61 4.68,-8.04 33.52,2.09 58.93,11.40 81.56,20.26 89.55,23.50 102.14,28.75 114.10,34.00 130.05,41.29 147.84,49.84 162.01,57.20 171.80,62.47 184.29,69.58 196.72,77.05 203.53,81.30 212.97,87.32 220.44,92.19 227.82,97.08 235.92,102.64 246.24,109.97 255.81,116.93 266.04,124.50 277.09,132.71 294.56,145.84 308.06,156.08 321.39,166.16 331.03,173.54 344.01,183.47 357.33,193.63 375.13,207.20 390.05,218.51 401.75,227.46 412.83,235.94 427.92,247.47 441.34,257.65 447.59,262.45 464.22,275.08 481.32,288.14 498.83,301.51 520.96,318.40 547.14,338.44 569.75,355.63 591.40,372.15 612.56,388.28" type="shoulder"/>
        <lane id="624.0_1" index="1" speed="13.89" length="730.60" width="3.66" shape="1.85,-5.17 3.46,-4.59 32.29,5.53 57.64,14.83 80.20,23.66 88.16,26.88 100.70,32.11 112.61,37.34 128.49,44.60 146.21,53.12 160.30,60.44 170.03,65.68 182.44,72.74 194.81,80.17 201.57,84.40 210.99,90.39 218.43,95.24 225.77,100.12 233.82,105.64 244.11,112.94 253.65,119.88 263.86,127.44 274.90,135.64 292.36,148.76 305.85,158.99 319.17,169.07 328.81,176.45 341.78,186.38 355.11,196.54 372.91,210.11 387.84,221.42 399.53,230.37 410.61,238.85 425.71,250.38 439.13,260.56 445.37,265.36 462.01,277.99 479.10,291.05 496.61,304.42 518.74,321.31 544.92,341.35 567.54,358.54 589.18,375.06 610.34,391.19"/>
        <lane id="624.0_2" index="2" speed="13.89" length="730.60" width="3.66" shape="0.62,-1.72 2.23,-1.14 31.05,8.98 56.34,18.25 78.85,27.06 86.77,30.27 99.26,35.48 111.11,40.68 126.94,47.91 144.57,56.39 158.59,63.67 168.26,68.88 180.59,75.90 192.90,83.29 199.62,87.49 209.01,93.47 216.42,98.30 223.72,103.15 231.73,108.64 241.97,115.91 251.48,122.83 261.68,130.38 272.71,138.57 290.15,151.68 303.64,161.91 316.96,171.98 326.58,179.36 339.56,189.29 352.89,199.45 370.70,213.02 385.62,224.33 397.30,233.28 408.38,241.76 423.49,253.29 436.91,263.47 443.15,268.27 459.79,280.90 476.88,293.96 494.39,307.33 516.51,324.22 542.70,344.26 565.32,361.45 586.96,377.97 608.12,394.10"/>
    </edge>
    <edge id="625.0" from="node_625_start" to="node_625_end" priority="-1" type="town" shape="738.26,495.45 752.75,506.48 774.01,522.51 801.10,543.04 825.02,560.89 851.26,580.44 859.05,586.07 866.99,591.66 875.95,597.86 882.04,601.98 889.38,606.78 891.86,608.36">
        <lane id="625.0_0" index="0" disallow="all" speed="13.89" length="188.57" width="3.66" shape="745.00,489.08 758.28,499.19 779.53,515.21 806.60,535.73 830.49,553.55 856.67,573.06 864.36,578.62 872.23,584.16 881.13,590.31 887.11,594.36 894.37,599.11 896.65,600.56" type="shoulder"/>
        <lane id="625.0_1" index="1" speed="13.89" length="188.57" width="3.66" shape="742.78,491.99 756.07,502.10 777.32,518.13 804.40,538.65 828.30,556.49 854.51,576.01 862.24,581.60 870.13,587.16 879.06,593.33 885.08,597.41 892.37,602.18 894.68,603.65"/>
        <lane id="625.0_2" index="2" speed="13.89" length="188.57" width="3.66" shape="740.56,494.90 753.86,505.02 775.11,521.05 802.20,541.58 826.11,559.42 852.34,578.96 860.11,584.58 868.04,590.16 876.99,596.35 883.05,600.46 890.38,605.25 892.72,606.74"/>
    </edge>
    <edge id="628.0" from="node_628_start" to="node_620_start" priority="-1" type="town" shape="989.91,660.39 991.38,661.05 997.83,663.85 1002.57,665.86 1012.16,669.81 1022.17,673.65 1029.73,676.43 1038.95,679.62 1047.42,682.50 1055.18,685.04 1061.78,687.20 1069.87,689.86 1077.77,692.41 1085.81,695.04 1095.20,698.03 1096.48,698.43">
        <lane id="628.0_0" index="0" disallow="all" speed="13.89" length="112.28" width="3.66" shape="993.80,652.11 995.04,652.67 1001.44,655.44 1006.10,657.42 1015.54,661.31 1025.39,665.08 1032.81,667.81 1041.92,670.97 1050.32,673.82 1058.03,676.34 1064.63,678.51 1072.71,681.16 1080.60,683.71 1088.62,686.33 1097.97,689.31 1099.08,689.66" type="shoulder"/>
        <lane id="628.0_1" index="1" speed="13.89" length="112.28" width="3.66" shape="992.30,655.44 993.58,656.02 1000.00,658.81 1004.69,660.79 1014.19,664.71 1024.10,668.51 1031.58,671.26 1040.73,674.43 1049.16,677.29 1056.89,679.82 1063.49,681.98 1071.57,684.64 1079.47,687.19 1087.50,689.81 1096.86,692.80 1097.99,693.15"/>
        <lane id="628.0_2" index="2" speed="13.89" length="112.28" width="3.66" shape="990.80,658.78 992.11,659.37 998.55,662.17 1003.28,664.17 1012.84,668.11 1022.81,671.94 1030.35,674.71 1039.54,677.89 1048.00,680.76 1055.75,683.30 1062.35,685.46 1070.44,688.12 1078.34,690.67 1086.37,693.30 1095.76,696.29 1096.90,696.64"/>
    </edge>
    <edge id="632.0" from="junction_95" to="node_632_end" priority="-1" type="town" shape="667.79,432.59 678.68,439.46 693.26,448.60 705.81,456.54 717.02,463.68 730.40,472.19 737.71,476.80 751.66,485.58 756.82,488.83 770.24,497.14 785.87,506.62 796.37,512.92 814.50,523.40 828.50,531.60 831.93,533.59">
        <lane id="632.0_0" index="0" speed="13.89" length="189.46" width="3.66" shape="671.49,432.76 679.65,437.91 694.24,447.05 706.79,454.99 718.00,462.14 731.38,470.64 738.69,475.25 752.64,484.03 757.79,487.28 771.20,495.58 786.82,505.05 797.30,511.34 815.42,521.82 829.42,530.02 832.85,532.01"/>
    </edge>
    <edge id="633.0" from="node_625_end" to="node_633_end" priority="-1" type="town" shape="891.86,608.36 895.09,610.42 903.98,615.97 908.65,618.80 912.77,621.20 918.85,624.73 926.58,629.06 932.07,632.08 938.64,635.63 943.21,637.98">
        <lane id="633.0_0" index="0" disallow="all" speed="13.89" length="58.50" width="3.66" shape="896.91,600.73 899.97,602.68 908.79,608.19 913.33,610.94 917.37,613.29 923.38,616.78 931.03,621.06 936.45,624.04 942.91,627.54 947.26,629.78" type="shoulder"/>
        <lane id="633.0_1" index="1" speed="13.89" length="58.50" width="3.66" shape="894.94,603.81 898.02,605.78 906.87,611.30 911.46,614.08 915.53,616.45 921.57,619.96 929.25,624.26 934.70,627.26 941.20,630.77 945.59,633.03"/>
        <lane id="633.0_2" index="2" speed="13.89" length="58.50" width="3.66" shape="892.97,606.90 896.07,608.87 904.94,614.41 909.59,617.23 913.69,619.62 919.76,623.14 927.47,627.46 932.95,630.47 939.49,634.01 943.92,636.29"/>
    </edge>
    <edge id="634.0" from="node_620_end" to="j_merge_start_53" priority="-1" type="town" shape="1122.18,706.48 1145.11,713.45 1161.07,718.39 1180.30,724.45 1192.70,728.29 1212.20,734.26 1226.20,738.51 1241.72,743.34 1258.40,748.45 1270.16,751.97 1282.61,755.88 1291.20,758.73">
        <lane id="634.0_0" index="0" speed="13.89" length="175.49" width="3.66" shape="1125.23,701.67 1146.72,708.20 1162.71,713.15 1181.94,719.21 1194.31,723.04 1213.80,729.01 1227.81,733.26 1243.34,738.09 1260.00,743.20 1271.77,746.72 1284.30,750.66 1292.93,753.52"/>
        <lane id="634.0_1" index="1" speed="13.89" length="175.49" width="3.66" shape="1124.16,705.17 1145.65,711.70 1161.62,716.64 1180.85,722.70 1193.24,726.54 1212.73,732.51 1226.74,736.76 1242.26,741.59 1258.93,746.70 1270.70,750.22 1283.17,754.14 1291.78,756.99"/>
    </edge>
    <edge id="642.0" from="node_633_end" to="node_628_start" priority="-1" type="town" shape="943.21,637.98 947.45,640.17 955.56,644.25 963.19,648.00 971.01,651.71 980.78,656.27 989.91,660.39">
        <lane id="642.0_0" index="0" disallow="all" speed="13.89" length="51.22" width="3.66" shape="947.54,629.92 951.59,632.01 959.64,636.06 967.17,639.76 974.90,643.43 984.60,647.95 993.53,651.99" type="shoulder"/>
        <lane id="642.0_1" index="1" speed="13.89" length="51.22" width="3.66" shape="945.86,633.17 949.94,635.27 958.01,639.33 965.58,643.06 973.35,646.74 983.07,651.28 992.03,655.32"/>
        <lane id="642.0_2" index="2" speed="13.89" length="51.22" width="3.66" shape="944.18,636.42 948.28,638.54 956.38,642.61 963.99,646.35 971.79,650.05 981.54,654.61 990.52,658.66"/>
    </edge>
    <edge id="648.0" from="junction_95" to="node_625_start" priority="-1" type="town" shape="663.55,438.65 676.80,448.77 700.91,467.06 728.00,487.64 738.26,495.45">
        <lane id="648.0_0" index="0" speed="13.89" length="89.43" width="3.66" shape="669.20,436.06 680.12,444.40 704.23,462.69 731.32,483.27 740.39,490.17"/>
        <lane id="648.0_1" index="1" speed="13.89" length="89.43" width="3.66" shape="666.98,438.97 677.91,447.31 702.02,465.60 729.11,486.18 738.18,493.09"/>
    </edge>
    <edge id="653.0" from="node_653_start" to="node_653_end" priority="-1" type="town" shape="5267.58,1611.56 5284.63,1614.64 5318.00,1620.35 5349.67,1625.48 5392.17,1632.17 5421.28,1636.49 5450.38,1640.52 5471.65,1643.48 5493.66,1646.28 5527.22,1650.25 5567.35,1654.61 5592.89,1657.33 5612.30,1659.47 5632.12,1661.80 5669.35,1666.74 5684.67,1668.72">
        <lane id="653.0_0" index="0" speed="13.89" length="420.62" width="3.66" shape="5268.71,1606.18 5285.58,1609.23 5318.90,1614.93 5350.54,1620.06 5393.00,1626.74 5422.06,1631.06 5451.14,1635.08 5472.38,1638.04 5494.33,1640.83 5527.84,1644.79 5567.94,1649.15 5593.48,1651.87 5612.92,1654.02 5632.80,1656.35 5670.07,1661.30 5685.24,1663.26"/>
        <lane id="653.0_1" index="1" speed="13.89" length="420.62" width="3.66" shape="5268.06,1609.79 5284.95,1612.84 5318.30,1618.54 5349.96,1623.67 5392.45,1630.36 5421.54,1634.68 5450.63,1638.71 5471.89,1641.67 5493.88,1644.46 5527.43,1648.43 5567.55,1652.79 5593.09,1655.51 5612.51,1657.65 5632.35,1659.98 5669.59,1664.93 5684.77,1666.89"/>
    </edge>
    <edge id="887.0" from="node_653_end" to="node_887_end" priority="-1" type="town" shape="5684.67,1668.72 5721.00,1673.69 5757.49,1678.54">
        <lane id="887.0_0" index="0" speed="13.89" length="71.83" width="3.66" shape="5685.55,1663.30 5721.73,1668.25 5756.73,1672.90"/>
        <lane id="887.0_1" index="1" speed="13.89" length="71.83" width="3.66" shape="5685.05,1666.93 5721.25,1671.88 5756.25,1676.53"/>
    </edge>
    <edge id="889.0" from="node_889_start" to="junction_51" priority="-1" type="town" shape="6101.90,1703.33 6131.99,1708.28">
        <lane id="889.0_0" index="0" speed="13.89" length="0.20" width="3.66" shape="6101.92,1701.48 6102.12,1701.51"/>
    </edge>
    <edge id="891.0" from="junction_51" to="junction_110" priority="-1" type="town" shape="6158.32,1723.81 6208.61,1730.77 6258.54,1737.55 6308.52,1744.31 6359.60,1751.32 6409.70,1758.18 6459.19,1764.86 6508.95,1771.64 6558.87,1778.58 6609.05,1785.32">
        <lane id="891.0_0" index="0" disallow="all" speed="13.89" length="454.87" width="3.66" shape="6160.58,1707.50 6210.85,1714.45 6260.75,1721.23 6310.74,1727.99 6361.84,1735.00 6411.92,1741.86 6461.40,1748.54 6511.20,1755.32 6561.10,1762.26 6611.24,1769.00" type="shoulder"/>
        <lane id="891.0_1" index="1" speed="13.89" length="454.87" width="3.66" shape="6160.08,1711.12 6210.35,1718.08 6260.26,1724.86 6310.25,1731.62 6361.34,1738.63 6411.43,1745.49 6460.91,1752.17 6510.70,1758.95 6560.61,1765.89 6610.76,1772.62"/>
        <lane id="891.0_2" index="2" speed="13.89" length="454.87" width="3.66" shape="6159.58,1714.75 6209.85,1721.70 6259.77,1728.48 6309.76,1735.24 6360.84,1742.25 6410.93,1749.11 6460.42,1755.79 6510.20,1762.58 6560.11,1769.51 6610.27,1776.25"/>
        <lane id="891.0_3" index="3" speed="13.89" length="454.87" width="3.66" shape="6159.07,1718.37 6209.36,1725.33 6259.28,1732.11 6309.26,1738.87 6360.35,1745.88 6410.44,1752.74 6459.93,1759.42 6509.70,1766.20 6559.61,1773.14 6609.78,1779.88"/>
        <lane id="891.0_4" index="4" disallow="all" speed="13.89" length="454.87" width="3.66" shape="6158.57,1722.00 6208.86,1728.96 6258.79,1735.74 6308.77,1742.50 6359.85,1749.51 6409.95,1756.37 6459.44,1763.05 6509.20,1769.83 6559.12,1776.77 6609.29,1783.51" type="shoulder"/>
    </edge>
    <edge id="893.0" from="junction_110" to="node_652_start" priority="-1" type="town" shape="6697.11,1797.34 6736.66,1802.85 6745.40,1804.24 6763.39,1809.34 6790.37,1813.55 6818.22,1818.86 6838.70,1822.22 6876.02,1828.72 6898.37,1832.97 6939.51,1841.10 6980.19,1849.49 7020.56,1858.50 7040.21,1862.98 7060.74,1867.82 7100.59,1877.17 7140.74,1886.24 7179.77,1895.14 7200.00,1899.99 7220.06,1904.97 7239.71,1909.92 7259.49,1915.15 7300.81,1926.49 7339.13,1936.72">
        <lane id="893.0_0" index="0" disallow="all" speed="13.89" length="695.32" width="3.66" shape="6662.25,1779.55 6738.55,1790.18 6748.16,1791.71 6766.14,1796.80 6792.56,1800.93 6820.46,1806.25 6840.84,1809.59 6878.32,1816.12 6900.81,1820.39 6942.05,1828.54 6982.88,1836.97 7023.37,1846.00 7043.10,1850.50 7063.67,1855.35 7103.47,1864.69 7143.58,1873.75 7182.69,1882.67 7203.04,1887.54 7223.17,1892.54 7242.91,1897.52 7262.82,1902.78 7304.16,1914.12 7342.43,1924.34" type="shoulder"/>
        <lane id="893.0_1" index="1" speed="13.89" length="695.32" width="3.66" shape="6661.74,1783.17 6738.01,1793.80 6747.37,1795.29 6765.35,1800.39 6791.93,1804.53 6819.82,1809.85 6840.23,1813.20 6877.66,1819.72 6900.11,1823.99 6941.32,1832.13 6982.11,1840.54 7022.57,1849.57 7042.28,1854.07 7062.83,1858.91 7102.64,1868.25 7142.77,1877.32 7181.85,1886.23 7202.17,1891.10 7222.28,1896.09 7242.00,1901.06 7261.87,1906.31 7303.20,1917.66 7341.50,1927.88"/>
        <lane id="893.0_2" index="2" speed="13.89" length="695.32" width="3.66" shape="6661.24,1786.80 6737.47,1797.42 6746.58,1798.87 6764.57,1803.97 6791.31,1808.14 6819.18,1813.45 6839.62,1816.81 6877.00,1823.32 6899.42,1827.58 6940.60,1835.72 6981.34,1844.12 7021.76,1853.14 7041.45,1857.63 7062.00,1862.48 7101.82,1871.82 7141.96,1880.89 7181.02,1889.79 7201.30,1894.66 7221.39,1899.64 7241.08,1904.60 7260.92,1909.85 7302.25,1921.19 7340.55,1931.42"/>
        <lane id="893.0_3" index="3" disallow="all" speed="13.89" length="695.32" width="3.66" shape="6660.73,1790.42 6736.93,1801.04 6745.80,1802.45 6763.78,1807.55 6790.68,1811.75 6818.54,1817.06 6839.01,1820.42 6876.35,1826.92 6898.72,1831.17 6939.87,1839.31 6980.58,1847.70 7020.96,1856.71 7040.62,1861.20 7061.16,1866.04 7101.00,1875.39 7141.15,1884.46 7180.19,1893.36 7200.43,1898.21 7220.50,1903.19 7240.17,1908.15 7259.97,1913.38 7301.29,1924.72 7339.60,1934.95" type="shoulder"/>
    </edge>
    <edge id="894.0" from="junction_110" to="node_894_end" priority="-1" type="town" shape="6661.60,1779.45 6690.05,1781.36 6717.98,1782.38 6746.29,1783.39 6785.08,1785.49">
        <lane id="894.0_0" index="0" speed="13.89" length="123.61" width="3.66" shape="6661.72,1777.62 6690.15,1779.53 6718.05,1780.55 6746.37,1781.56 6785.18,1783.66"/>
    </edge>
    <edge id="918.0" from="node_918_start" to="node_918_end" priority="-1" type="town" shape="5927.37,1664.21 5966.79,1672.69 6001.08,1680.94 6035.93,1689.18 6049.87,1692.50">
        <lane id="918.0_0" index="0" speed="13.89" length="125.61" width="3.66" shape="5927.76,1662.42 5967.20,1670.91 6001.51,1679.16 6036.35,1687.40 6050.14,1690.68"/>
    </edge>
    <edge id="919.0" from="node_918_end" to="node_889_start" priority="-1" type="town" shape="6049.87,1692.50 6062.72,1695.37 6079.22,1698.88 6092.66,1701.40 6101.90,1703.33">
        <lane id="919.0_0" index="0" speed="13.89" length="52.82" width="3.66" shape="6050.42,1690.75 6063.11,1693.58 6079.58,1697.09 6093.02,1699.60 6102.13,1701.51"/>
    </edge>
    <edge id="920.0" from="node_920_start" to="node_653_start" priority="-1" type="town" shape="4981.38,1555.88 4990.12,1557.63 5023.55,1564.59 5082.06,1576.73 5117.77,1583.53 5151.50,1589.89 5186.97,1596.52 5229.40,1604.59 5267.58,1611.56">
        <lane id="920.0_0" index="0" speed="13.89" length="291.24" width="3.66" shape="4982.58,1550.52 4991.22,1552.25 5024.67,1559.21 5083.13,1571.35 5118.79,1578.14 5152.51,1584.49 5187.99,1591.13 5230.41,1599.19 5268.42,1606.13"/>
        <lane id="920.0_1" index="1" speed="13.89" length="291.24" width="3.66" shape="4981.86,1554.11 4990.49,1555.84 5023.92,1562.80 5082.42,1574.94 5118.11,1581.73 5151.84,1588.09 5187.31,1594.72 5229.74,1602.79 5267.76,1609.73"/>
    </edge>
    <edge id="921.0" from="node_921_start" to="j_merge_start_53" priority="-1" type="town" shape="1004.98,616.53 1120.00,655.47 1235.00,694.46 1349.80,733.98">
        <lane id="921.0_0" index="0" speed="13.89" length="316.38" width="3.66" shape="1006.74,611.33 1121.76,650.27 1236.78,689.26 1306.29,713.19"/>
        <lane id="921.0_1" index="1" speed="13.89" length="316.38" width="3.66" shape="1005.57,614.80 1120.59,653.74 1235.59,692.73 1305.10,716.65"/>
    </edge>
    <edge id="924.0" from="node_924_start" to="junction_113" priority="-1" type="town" shape="2133.48,1006.82 2162.49,1012.78 2191.79,1018.47">
        <lane id="924.0_0" index="0" speed="13.89" length="59.20" width="3.66" shape="2136.24,994.31 2165.00,1000.22 2194.23,1005.89"/>
        <lane id="924.0_1" index="1" speed="13.89" length="59.20" width="3.66" shape="2135.50,997.89 2164.28,1003.81 2193.54,1009.49"/>
        <lane id="924.0_2" index="2" speed="13.89" length="59.20" width="3.66" shape="2134.76,1001.48 2163.57,1007.40 2192.84,1013.08"/>
        <lane id="924.0_3" index="3" disallow="all" speed="13.89" length="59.20" width="3.66" shape="2134.03,1005.06 2162.85,1010.99 2192.14,1016.67" type="shoulder"/>
    </edge>
    <edge id="926.0" from="junction_113" to="node_926_end" priority="-1" type="town" shape="2293.75,1037.88 2392.23,1056.37 2491.18,1075.04 2521.56,1080.95 2530.35,1083.36 2539.45,1083.92 2564.17,1087.71 2588.83,1091.98 2637.65,1101.09">
        <lane id="926.0_0" index="0" disallow="all" speed="13.89" length="260.13" width="3.66" shape="2384.07,1041.80 2394.60,1043.78 2493.59,1062.46 2524.48,1068.47 2532.46,1070.66 2540.82,1071.17 2566.23,1075.07 2591.10,1079.37 2639.86,1088.47" type="shoulder"/>
        <lane id="926.0_1" index="1" speed="13.89" length="260.13" width="3.66" shape="2383.40,1045.40 2393.92,1047.38 2492.90,1066.05 2523.65,1072.03 2531.86,1074.29 2540.43,1074.81 2565.64,1078.68 2590.45,1082.97 2639.19,1092.07"/>
        <lane id="926.0_2" index="2" speed="13.89" length="260.13" width="3.66" shape="2382.72,1049.00 2393.25,1050.97 2492.21,1069.65 2522.81,1075.60 2531.25,1077.92 2540.04,1078.46 2565.06,1082.29 2589.80,1086.58 2638.52,1095.67"/>
        <lane id="926.0_3" index="3" disallow="all" speed="13.89" length="260.13" width="3.66" shape="2382.04,1052.60 2392.57,1054.57 2491.53,1073.24 2521.98,1079.17 2530.65,1081.55 2539.65,1082.10 2564.47,1085.90 2589.15,1090.18 2637.85,1099.27" type="shoulder"/>