<?xml version='1.0' encoding='utf-8'?>
<connections>
    <connection from="891.0" to="893.0" fromLane="4" toLane="3" />
    <connection from="891.0" to="893.0" fromLane="3" toLane="2" />
    <connection from="891.0" to="893.0" fromLane="2" toLane="1" />
    <connection from="891.0" to="894.0" fromLane="1" toLane="0" />
    <connection from="924.0" to="926.0" fromLane="2" toLane="2" />
    <connection from="924.0" to="926.0" fromLane="1" toLane="1" />
    <connection from="924.0" to="926.0" fromLane="3" toLane="3" />
    <connection from="924.0" to="927.0" fromLane="0" toLane="0" />
    <connection from="936.0" to="891.0" fromLane="3" toLane="4" />
    <connection from="936.0" to="891.0" fromLane="1" toLane="2" />
    <connection from="936.0" to="891.0" fromLane="2" toLane="3" />
    <connection from="634.0" to="merge_zone_53" fromLane="1" toLane="0" />
    <connection from="merge_zone_53" to="929.0" fromLane="0" toLane="2" dir="r" state="m" />
    <connection from="921.0" to="merge_zone_53" fromLane="1" toLane="2" />
    <connection from="merge_zone_53" to="929.0" fromLane="2" toLane="2" />
    <connection from="624.0" to="632.0" fromLane="1" toLane="0" />
    <connection from="624.0" to="648.0" fromLane="2" toLane="1" />
    <connection from="624.0" to="648.0" fromLane="1" toLane="0" />
</connections>