<?xml version='1.0' encoding='utf-8'?>
<edges>
    <edge id="620.0" from="node_620_start" to="node_620_end" numLanes="3" speed="13.89" type="town" shape="741554.53,3289237.25 741560.05,3289239.02 741560.05,3289239.02 741570.23,3289242.15 741570.23,3289242.15 741580.23,3289245.30">
        <lane index="0" width="3.66" type="shoulder" disallow="all" />
        <lane index="1" width="3.66" />
        <lane index="2" width="3.66" />
    </edge>
    <edge id="624.0" from="node_624_start" to="junction_95" numLanes="3" speed="13.89" type="town" shape="740458.05,3288538.82 740459.67,3288539.40 740459.67,3288539.40 740488.48,3288549.52 740488.48,3288549.52 740513.74,3288558.78 740513.74,3288558.78 740536.22,3288567.58 740536.22,3288567.58 740544.12,3288570.78 740544.12,3288570.78 740556.59,3288575.98 740556.59,3288575.98 740568.41,3288581.17 740568.41,3288581.17 740584.21,3288588.39 740584.21,3288588.39 740601.80,3288596.85 740601.80,3288596.85 740615.78,3288604.11 740615.78,3288604.11 740625.42,3288609.30 740625.42,3288609.30 740637.72,3288616.30 740637.72,3288616.30 740649.99,3288623.67 740649.99,3288623.67 740656.69,3288627.86 740656.69,3288627.86 740666.07,3288633.83 740666.07,3288633.83 740673.46,3288638.65 740673.46,3288638.65 740680.75,3288643.49 740680.75,3288643.49 740688.73,3288648.96 740688.73,3288648.96 740698.95,3288656.22 740698.95,3288656.22 740708.45,3288663.13 740708.45,3288663.13 740718.64,3288670.67 740718.64,3288670.67 740729.66,3288678.86 740729.66,3288678.86 740747.10,3288691.96 740747.10,3288691.96 740760.58,3288702.19 740760.58,3288702.19 740773.90,3288712.26 740773.90,3288712.26 740783.52,3288719.63 740783.52,3288719.63 740796.50,3288729.56 740796.50,3288729.56 740809.83,3288739.73 740809.83,3288739.73 740827.64,3288753.30 740827.64,3288753.30 740842.56,3288764.61 740842.56,3288764.61 740854.24,3288773.55 740854.24,3288773.55 740865.32,3288782.03 740865.32,3288782.03 740880.43,3288793.57 740880.43,3288793.57 740893.85,3288803.75 740893.85,3288803.75 740900.09,3288808.54 740900.09,3288808.54 740916.73,3288821.18 740916.73,3288821.18 740933.82,3288834.23 740933.82,3288834.23 740951.33,3288847.60 740951.33,3288847.60 740973.45,3288864.49 740973.45,3288864.49 740999.64,3288884.54 740999.64,3288884.54 741022.26,3288901.73 741022.26,3288901.73 741043.90,3288918.24 741043.90,3288918.24 741065.06,3288934.38">
        <lane index="0" width="3.66" type="shoulder" disallow="all" />
        <lane index="1" width="3.66" />
        <lane index="2" width="3.66" />
    </edge>
    <edge id="625.0" from="node_625_start" to="node_625_end" numLanes="3" speed="13.89" type="town" shape="741196.31,3289034.27 741210.80,3289045.30 741210.80,3289045.30 741232.06,3289061.33 741232.06,3289061.33 741259.15,3289081.86 741259.15,3289081.86 741283.07,3289099.71 741283.07,3289099.71 741309.31,3289119.26 741309.31,3289119.26 741317.10,3289124.89 741317.10,3289124.89 741325.04,3289130.48 741325.04,3289130.48 741334.00,3289136.68 741334.00,3289136.68 741340.09,3289140.80 741340.09,3289140.80 741347.43,3289145.60 741347.43,3289145.60 741349.91,3289147.18">
        <lane index="0" width="3.66" type="shoulder" disallow="all" />
        <lane index="1" width="3.66" />
        <lane index="2" width="3.66" />
    </edge>
    <edge id="628.0" from="node_628_start" to="node_620_start" numLanes="3" speed="13.89" type="town" shape="741447.96,3289199.21 741449.43,3289199.87 741449.43,3289199.87 741455.88,3289202.67 741455.88,3289202.67 741460.62,3289204.68 741460.62,3289204.68 741470.21,3289208.63 741470.21,3289208.63 741480.22,3289212.47 741480.22,3289212.47 741487.78,3289215.25 741487.78,3289215.25 741497.00,3289218.44 741497.00,3289218.44 741505.47,3289221.32 741505.47,3289221.32 741513.23,3289223.86 741513.23,3289223.86 741519.83,3289226.02 741519.83,3289226.02 741527.92,3289228.68 741527.92,3289228.68 741535.82,3289231.23 741535.82,3289231.23 741543.86,3289233.86 741543.86,3289233.86 741553.25,3289236.85 741553.25,3289236.85 741554.53,3289237.25">
        <lane index="0" width="3.66" type="shoulder" disallow="all" />
        <lane index="1" width="3.66" />
        <lane index="2" width="3.66" />
    </edge>
    <edge id="632.0" from="junction_95" to="node_632_end" numLanes="1" speed="13.89" type="town" shape="741125.84,3288971.41 741136.73,3288978.28 741136.73,3288978.28 741151.31,3288987.42 741151.31,3288987.42 741163.86,3288995.36 741163.86,3288995.36 741175.07,3289002.50 741175.07,3289002.50 741188.45,3289011.01 741188.45,3289011.01 741195.76,3289015.62 741195.76,3289015.62 741209.71,3289024.40 741209.71,3289024.40 741214.87,3289027.65 741214.87,3289027.65 741228.29,3289035.96 741228.29,3289035.96 741243.92,3289045.44 741243.92,3289045.44 741254.42,3289051.74 741254.42,3289051.74 741272.55,3289062.22 741272.55,3289062.22 741286.55,3289070.42 741286.55,3289070.42 741289.98,3289072.41">
        <lane index="0" width="3.66" />
    </edge>
    <edge id="633.0" from="node_625_end" to="node_633_end" numLanes="3" speed="13.89" type="town" shape="741349.91,3289147.18 741353.14,3289149.24 741353.14,3289149.24 741362.03,3289154.79 741362.03,3289154.79 741366.70,3289157.62 741366.70,3289157.62 741370.82,3289160.02 741370.82,3289160.02 741376.90,3289163.55 741376.90,3289163.55 741384.63,3289167.88 741384.63,3289167.88 741390.12,3289170.90 741390.12,3289170.90 741396.69,3289174.45 741396.69,3289174.45 741401.26,3289176.80">
        <lane index="0" width="3.66" type="shoulder" disallow="all" />
        <lane index="1" width="3.66" />
        <lane index="2" width="3.66" />
    </edge>
    <edge id="634.0" from="node_620_end" to="j_merge_start_53" numLanes="2" speed="13.89" type="town" shape="741580.23,3289245.30 741603.16,3289252.27 741603.16,3289252.27 741619.12,3289257.21 741619.12,3289257.21 741638.35,3289263.27 741638.35,3289263.27 741650.75,3289267.11 741650.75,3289267.11 741670.25,3289273.08 741670.25,3289273.08 741684.25,3289277.33 741684.25,3289277.33 741699.77,3289282.16 741699.77,3289282.16 741716.45,3289287.27 741716.45,3289287.27 741728.21,3289290.79 741728.21,3289290.79 741740.66,3289294.70 741740.66,3289294.70 741749.25,3289297.55">
        <lane index="0" width="3.66" />
        <lane index="1" width="3.66" />
    </edge>
    <edge id="642.0" from="node_633_end" to="node_628_start" numLanes="3" speed="13.89" type="town" shape="741401.26,3289176.80 741405.50,3289178.99 741405.50,3289178.99 741413.61,3289183.07 741413.61,3289183.07 741421.24,3289186.82 741421.24,3289186.82 741429.06,3289190.53 741429.06,3289190.53 741438.83,3289195.09 741438.83,3289195.09 741447.96,3289199.21">
        <lane index="0" width="3.66" type="shoulder" disallow="all" />
        <lane index="1" width="3.66" />
        <lane index="2" width="3.66" />
    </edge>
    <edge id="648.0" from="junction_95" to="node_625_start" numLanes="2" speed="13.89" type="town" shape="741121.60,3288977.47 741134.85,3288987.59 741134.85,3288987.59 741158.96,3289005.88 741158.96,3289005.88 741186.05,3289026.46 741186.05,3289026.46 741196.31,3289034.27">
        <lane index="0" width="3.66" />
        <lane index="1" width="3.66" />
    </edge>
    <edge id="653.0" from="node_653_start" to="node_653_end" numLanes="2" speed="13.89" type="town" shape="745725.63,3290150.38 745742.68,3290153.46 745742.68,3290153.46 745776.05,3290159.17 745776.05,3290159.17 745807.72,3290164.30 745807.72,3290164.30 745850.22,3290170.99 745850.22,3290170.99 745879.33,3290175.31 745879.33,3290175.31 745908.43,3290179.34 745908.43,3290179.34 745929.70,3290182.30 745929.70,3290182.30 745951.71,3290185.10 745951.71,3290185.10 745985.27,3290189.07 745985.27,3290189.07 746025.40,3290193.43 746025.40,3290193.43 746050.94,3290196.15 746050.94,3290196.15 746070.35,3290198.29 746070.35,3290198.29 746090.17,3290200.62 746090.17,3290200.62 746127.40,3290205.56 746127.40,3290205.56 746142.72,3290207.54">
        <lane index="0" width="3.66" />
        <lane index="1" width="3.66" />
    </edge>
    <edge id="887.0" from="node_653_end" to="node_887_end" numLanes="2" speed="13.89" type="town" shape="746142.72,3290207.54 746179.05,3290212.51 746179.05,3290212.51 746215.54,3290217.36">
        <lane index="0" width="3.66" />
        <lane index="1" width="3.66" />
    </edge>
    <edge id="889.0" from="node_889_start" to="junction_51" numLanes="1" speed="13.89" type="town" shape="746559.95,3290242.15 746590.04,3290247.10">
        <lane index="0" width="3.66" />
    </edge>
    <edge id="891.0" from="junction_51" to="junction_110" numLanes="5" speed="13.89" type="town" shape="746616.37,3290262.63 746666.66,3290269.59 746666.66,3290269.59 746716.59,3290276.37 746716.59,3290276.37 746766.57,3290283.13 746766.57,3290283.13 746817.65,3290290.14 746817.65,3290290.14 746867.75,3290297.00 746867.75,3290297.00 746917.24,3290303.68 746917.24,3290303.68 746967.00,3290310.46 746967.00,3290310.46 747016.92,3290317.40 747016.92,3290317.40 747067.10,3290324.14">
        <lane index="0" width="3.66" type="shoulder" disallow="all" />
        <lane index="1" width="3.66" />
        <lane index="2" width="3.66" />
        <lane index="3" width="3.66" />
        <lane index="4" width="3.66" type="shoulder" disallow="all" />
    </edge>
    <edge id="893.0" from="junction_110" to="node_652_start" numLanes="4" speed="13.89" type="town" shape="747155.16,3290336.16 747194.71,3290341.67 747194.71,3290341.67 747203.45,3290343.06 747203.45,3290343.06 747221.44,3290348.16 747221.44,3290348.16 747248.42,3290352.37 747248.42,3290352.37 747276.27,3290357.68 747276.27,3290357.68 747296.75,3290361.04 747296.75,3290361.04 747334.07,3290367.54 747334.07,3290367.54 747356.42,3290371.79 747356.42,3290371.79 747397.56,3290379.92 747397.56,3290379.92 747438.24,3290388.31 747438.24,3290388.31 747478.61,3290397.32 747478.61,3290397.32 747498.26,3290401.80 747498.26,3290401.80 747518.79,3290406.64 747518.79,3290406.64 747558.64,3290415.99 747558.64,3290415.99 747598.79,3290425.06 747598.79,3290425.06 747637.82,3290433.96 747637.82,3290433.96 747658.05,3290438.81 747658.05,3290438.81 747678.11,3290443.79 747678.11,3290443.79 747697.76,3290448.74 747697.76,3290448.74 747717.54,3290453.97 747717.54,3290453.97 747758.86,3290465.31 747758.86,3290465.31 747797.18,3290475.54">
        <lane index="0" width="3.66" type="shoulder" disallow="all" />
        <lane index="1" width="3.66" />
        <lane index="2" width="3.66" />
        <lane index="3" width="3.66" type="shoulder" disallow="all" />
    </edge>
    <edge id="894.0" from="junction_110" to="node_894_end" numLanes="1" speed="13.89" type="town" shape="747119.65,3290318.27 747148.10,3290320.18 747148.10,3290320.18 747176.03,3290321.20 747176.03,3290321.20 747204.34,3290322.21 747204.34,3290322.21 747243.13,3290324.31">
        <lane index="0" width="3.66" />
    </edge>
    <edge id="918.0" from="node_918_start" to="node_918_end" numLanes="1" speed="13.89" type="town" shape="746385.42,3290203.03 746424.84,3290211.51 746424.84,3290211.51 746459.13,3290219.76 746459.13,3290219.76 746493.98,3290228.00 746493.98,3290228.00 746507.92,3290231.32">
        <lane index="0" width="3.66" />
    </edge>
    <edge id="919.0" from="node_918_end" to="node_889_start" numLanes="1" speed="13.89" type="town" shape="746507.92,3290231.32 746520.77,3290234.19 746520.77,3290234.19 746537.27,3290237.70 746537.27,3290237.70 746550.71,3290240.22 746550.71,3290240.22 746559.95,3290242.15">
        <lane index="0" width="3.66" />
    </edge>
    <edge id="920.0" from="node_920_start" to="node_653_start" numLanes="2" speed="13.89" type="town" shape="745439.43,3290094.70 745448.17,3290096.45 745448.17,3290096.45 745481.60,3290103.41 745481.60,3290103.41 745540.11,3290115.55 745540.11,3290115.55 745575.82,3290122.35 745575.82,3290122.35 745609.55,3290128.71 745609.55,3290128.71 745645.02,3290135.34 745645.02,3290135.34 745687.45,3290143.41 745687.45,3290143.41 745725.63,3290150.38">
        <lane index="0" width="3.66" />
        <lane index="1" width="3.66" />
    </edge>
    <edge id="921.0" from="node_921_start" to="j_merge_start_53" numLanes="2" speed="13.89" type="town" shape="741463.03,3289155.35 741578.05,3289194.29 741578.05,3289194.29 741693.05,3289233.28 741693.05,3289233.28 741807.85,3289272.80">
        <lane index="0" width="3.66" />
        <lane index="1" width="3.66" />
    </edge>
    <edge id="924.0" from="node_924_start" to="junction_113" numLanes="4" speed="13.89" type="town" shape="742591.53,3289545.64 742620.54,3289551.60 742620.54,3289551.60 742649.84,3289557.29">
        <lane index="0" width="3.66" />
        <lane index="1" width="3.66" />
        <lane index="2" width="3.66" />
        <lane index="3" width="3.66" type="shoulder" disallow="all" />
    </edge>
    <edge id="926.0" from="junction_113" to="node_926_end" numLanes="4" speed="13.89" type="town" shape="742751.80,3289576.70 742850.28,3289595.19 742850.28,3289595.19 742949.23,3289613.86 742949.23,3289613.86 742979.61,3289619.77 742979.61,3289619.77 742988.40,3289622.18 742988.40,3289622.18 742997.50,3289622.74 742997.50,3289622.74 743022.22,3289626.53 743022.22,3289626.53 743046.88,3289630.80 743046.88,3289630.80 743095.70,3289639.91">
        <lane index="0" width="3.66" type="shoulder" disallow="all" />
        <lane index="1" width="3.66" />
        <lane index="2" width="3.66" />
        <lane index="3" width="3.66" type="shoulder" disallow="all" />
    </edge>
    <edge id="927.0" from="junction_113" to="node_927_end" numLanes="1" speed="13.89" type="town" shape="742843.14,3289567.43 742906.04,3289575.11 742906.04,3289575.11 742938.79,3289580.10 742938.79,3289580.10 742970.97,3289585.21">
        <lane index="0" width="3.66" />
    </edge>
    <edge id="929.0" from="j_merge_end_53" to="node_930_start" numLanes="3" speed="13.89" type="town" shape="742197.89,3289437.76 742217.68,3289443.70 742217.68,3289443.70 742244.88,3289451.58 742244.88,3289451.58 742272.90,3289459.61 742272.90,3289459.61 742303.44,3289468.12">
        <lane index="0" width="3.66" />
        <lane index="1" width="3.66" />
        <lane index="2" width="3.66" />
    </edge>
    <edge id="930.0" from="node_929_end" to="node_924_start" numLanes="4" speed="13.89" type="town" shape="742302.33,3289475.80 742337.99,3289485.36 742337.99,3289485.36 742396.81,3289500.69 742396.81,3289500.69 742428.81,3289508.66 742428.81,3289508.66 742463.27,3289516.97 742463.27,3289516.97 742495.53,3289524.45 742495.53,3289524.45 742527.09,3289531.75 742527.09,3289531.75 742560.25,3289538.97 742560.25,3289538.97 742591.53,3289545.64">
        <lane index="0" width="3.66" />
        <lane index="1" width="3.66" />
        <lane index="2" width="3.66" />
        <lane index="3" width="3.66" type="shoulder" disallow="all" />
    </edge>
    <edge id="931.0" from="node_926_end" to="node_931_end" numLanes="4" speed="13.89" type="town" shape="743095.70,3289639.91 743102.45,3289641.19 743102.45,3289641.19 743109.19,3289642.47 743109.19,3289642.47 743115.93,3289643.75 743115.93,3289643.75 743122.67,3289645.03">
        <lane index="0" width="3.66" type="shoulder" disallow="all" />
        <lane index="1" width="3.66" />
        <lane index="2" width="3.66" />
        <lane index="3" width="3.66" type="shoulder" disallow="all" />
    </edge>
    <edge id="932.0" from="node_932_start" to="node_920_start" numLanes="2" speed="13.89" type="town" shape="743751.73,3289776.62 743789.35,3289783.71 743789.35,3289783.71 743898.68,3289804.29 743898.68,3289804.29 744001.29,3289823.67 744001.29,3289823.67 744104.67,3289843.17 744104.67,3289843.17 744207.80,3289862.62 744207.80,3289862.62 744413.83,3289901.43 744413.83,3289901.43 744620.30,3289940.33 744620.30,3289940.33 744823.41,3289978.64 744823.41,3289978.64 745028.08,3290017.17 745028.08,3290017.17 745233.58,3290056.01 745233.58,3290056.01 745439.43,3290094.70">
        <lane index="0" width="3.66" />
        <lane index="1" width="3.66" />
    </edge>
    <edge id="933.0" from="node_931_end" to="node_934_start" numLanes="4" speed="13.89" type="town" shape="743122.67,3289645.03 743141.34,3289648.73 743141.34,3289648.73 743159.84,3289652.22">
        <lane index="0" width="3.66" type="shoulder" disallow="all" />
        <lane index="1" width="3.66" />
        <lane index="2" width="3.66" />
        <lane index="3" width="3.66" type="shoulder" disallow="all" />
    </edge>
    <edge id="934.0" from="node_933_end" to="node_932_start" numLanes="3" speed="13.89" type="town" shape="743160.91,3289649.10 743183.26,3289654.33 743183.26,3289654.33 743225.81,3289664.84 743225.81,3289664.84 743269.56,3289676.10 743269.56,3289676.10 743290.71,3289681.63 743290.71,3289681.63 743311.93,3289686.85 743311.93,3289686.85 743355.29,3289697.30 743355.29,3289697.30 743397.07,3289706.65 743397.07,3289706.65 743442.28,3289716.30 743442.28,3289716.30 743527.93,3289733.07 743527.93,3289733.07 743615.14,3289751.05 743615.14,3289751.05 743652.25,3289758.15 743652.25,3289758.15 743689.41,3289764.86 743689.41,3289764.86 743751.73,3289776.62">
        <lane index="0" width="3.66" type="shoulder" disallow="all" />
        <lane index="1" width="3.66" />
        <lane index="2" width="3.66" />
    </edge>
    <edge id="935.0" from="node_887_end" to="node_936_start" numLanes="3" speed="13.89" type="town" shape="746215.54,3290217.36 746229.76,3290219.25 746229.76,3290219.25 746275.81,3290224.62 746275.81,3290224.62 746302.05,3290227.54 746302.05,3290227.54 746328.92,3290230.33 746328.92,3290230.33 746361.90,3290233.19 746361.90,3290233.19 746396.55,3290236.13 746396.55,3290236.13 746461.64,3290241.19 746461.64,3290241.19 746506.90,3290245.58">
        <lane index="0" width="3.66" type="shoulder" disallow="all" />
        <lane index="1" width="3.66" />
        <lane index="2" width="3.66" />
    </edge>
    <edge id="936.0" from="node_935_end" to="junction_51" numLanes="4" speed="13.89" type="town" shape="746506.49,3290247.13 746519.16,3290248.82 746519.16,3290248.82 746523.59,3290249.61 746523.59,3290249.61 746534.36,3290251.72 746534.36,3290251.72 746557.98,3290254.72">
        <lane index="0" width="3.66" type="shoulder" disallow="all" />
        <lane index="1" width="3.66" />
        <lane index="2" width="3.66" />
        <lane index="3" width="3.66" type="shoulder" disallow="all" />
    </edge>
    <edge id="merge_zone_53" from="j_merge_start_53" to="j_merge_end_53" numLanes="3" speed="13.89" name="Merge zone 53" type="highway_merge" shape="741856.96,3289291.29 741856.96,3289291.29 741893.46,3289305.78 741893.46,3289305.78 741912.22,3289313.56 741912.22,3289313.56 741930.74,3289321.36 741930.74,3289321.36 741974.03,3289340.41 741974.03,3289340.41 742001.82,3289353.11 742001.82,3289353.11 742019.25,3289361.08 742019.25,3289361.08 742036.53,3289368.84 742036.53,3289368.84 742065.45,3289381.08 742065.45,3289381.08 742100.08,3289395.14 742100.08,3289395.14 742117.99,3289401.96 742117.99,3289401.96 742136.30,3289408.71 742136.30,3289408.71 742153.01,3289414.79">
        <lane index="0" width="3.66" />
        <lane index="1" width="3.66" />
        <lane index="2" width="3.66" />
    </edge>
</edges>