<?xml version='1.0' encoding='utf-8'?>
<edges>
    <edge id="464.0" from="j_merge_end_29" to="junction_87" numLanes="3" speed="13.89" type="town" shape="684265.05,3286710.97 684279.10,3286711.55 684279.10,3286711.55 684294.37,3286712.22 684294.37,3286712.22 684308.67,3286712.82 684308.67,3286712.82 684320.51,3286713.33 684320.51,3286713.33 684330.19,3286713.71 684330.19,3286713.71 684341.97,3286714.19 684341.97,3286714.19 684353.28,3286714.68 684353.28,3286714.68 684369.58,3286715.40 684369.58,3286715.40 684386.74,3286716.06 684386.74,3286716.06 684402.51,3286716.67 684402.51,3286716.67 684418.12,3286717.33 684418.12,3286717.33 684435.44,3286718.02 684435.44,3286718.02 684449.10,3286718.59 684449.10,3286718.59 684462.51,3286719.11 684462.51,3286719.11 684475.73,3286719.70 684475.73,3286719.70 684487.50,3286720.20 684487.50,3286720.20 684501.65,3286720.78 684501.65,3286720.78 684517.01,3286721.43 684517.01,3286721.43 684529.66,3286721.97 684529.66,3286721.97 684544.57,3286722.60 684544.57,3286722.60 684554.71,3286723.05 684554.71,3286723.05 684563.31,3286723.41 684563.31,3286723.41 684572.60,3286723.84 684572.60,3286723.84 684582.52,3286724.25 684582.52,3286724.25 684592.77,3286724.67 684592.77,3286724.67 684601.20,3286725.03 684601.20,3286725.03 684609.61,3286725.35 684609.61,3286725.35 684620.23,3286725.82 684620.23,3286725.82 684629.17,3286726.14 684629.17,3286726.14 684637.88,3286726.47 684637.88,3286726.47 684647.53,3286726.84 684647.53,3286726.84 684664.75,3286727.54 684664.75,3286727.54 684675.40,3286727.93 684675.40,3286727.93 684685.20,3286728.31 684685.20,3286728.31 684694.50,3286728.66 684694.50,3286728.66 684706.78,3286729.14 684706.78,3286729.14 684717.67,3286729.60 684717.67,3286729.60 684731.47,3286730.15 684731.47,3286730.15 684743.24,3286730.61 684743.24,3286730.61 684754.23,3286731.06 684754.23,3286731.06 684765.37,3286731.50 684765.37,3286731.50 684776.10,3286731.95 684776.10,3286731.95 684787.06,3286732.44 684787.06,3286732.44 684798.87,3286732.92 684798.87,3286732.92 684812.33,3286733.48 684812.33,3286733.48 684824.99,3286734.02 684824.99,3286734.02 684836.64,3286734.52 684836.64,3286734.52 684848.22,3286735.01 684848.22,3286735.01 684861.74,3286735.60 684861.74,3286735.60 684873.79,3286736.08 684873.79,3286736.08 684884.66,3286736.55 684884.66,3286736.55 684899.52,3286737.18 684899.52,3286737.18 684912.17,3286737.72 684912.17,3286737.72 684930.53,3286738.50 684930.53,3286738.50 684946.52,3286739.13 684946.52,3286739.13 684961.19,3286739.79 684961.19,3286739.79 684976.33,3286740.44 684976.33,3286740.44 684992.95,3286741.18 684992.95,3286741.18 685008.02,3286741.86 685008.02,3286741.86 685019.16,3286742.41 685019.16,3286742.41 685030.54,3286742.90 685030.54,3286742.90 685041.87,3286743.47 685041.87,3286743.47 685053.37,3286744.02 685053.37,3286744.02 685069.04,3286744.78 685069.04,3286744.78 685081.10,3286745.34 685081.10,3286745.34 685095.55,3286746.01 685095.55,3286746.01 685098.30,3286746.11 685098.30,3286746.11 685123.00,3286747.27 685123.00,3286747.27 685142.32,3286748.18 685142.32,3286748.18 685161.67,3286749.10 685161.67,3286749.10 685180.07,3286749.93 685180.07,3286749.93 685195.65,3286750.67 685195.65,3286750.67 685211.06,3286751.42 685211.06,3286751.42 685233.67,3286752.49 685233.67,3286752.49 685248.80,3286753.22 685248.80,3286753.22 685265.68,3286754.05 685265.68,3286754.05 685280.32,3286754.74 685280.32,3286754.74 685297.00,3286755.52 685297.00,3286755.52 685309.70,3286756.11 685309.70,3286756.11 685330.01,3286757.12 685330.01,3286757.12 685352.08,3286758.10 685352.08,3286758.10 685376.16,3286759.24 685376.16,3286759.24 685401.71,3286760.47 685401.71,3286760.47 685429.24,3286761.82 685429.24,3286761.82 685455.26,3286763.06 685455.26,3286763.06 685486.72,3286764.58 685486.72,3286764.58 685509.62,3286765.64 685509.62,3286765.64 685534.91,3286766.90 685534.91,3286766.90 685560.11,3286768.06 685560.11,3286768.06 685581.30,3286769.07 685581.30,3286769.07 685605.15,3286770.23 685605.15,3286770.23 685626.39,3286771.27 685626.39,3286771.27 685647.47,3286772.31 685647.47,3286772.31 685677.69,3286773.77 685677.69,3286773.77 685707.41,3286775.22 685707.41,3286775.22 685727.60,3286776.12 685727.60,3286776.12 685743.74,3286776.90 685743.74,3286776.90 685766.50,3286777.97 685766.50,3286777.97 685795.49,3286779.33 685795.49,3286779.33 685821.11,3286780.58 685821.11,3286780.58 685844.54,3286781.74 685844.54,3286781.74 685867.22,3286782.83 685867.22,3286782.83 685887.83,3286783.81 685887.83,3286783.81 685912.87,3286784.91 685912.87,3286784.91 685940.93,3286786.19 685940.93,3286786.19 685963.38,3286787.26 685963.38,3286787.26 685981.60,3286788.09 685981.60,3286788.09 686003.85,3286789.22 686003.85,3286789.22 686023.05,3286790.14 686023.05,3286790.14 686040.92,3286790.98 686040.92,3286790.98 686062.09,3286791.99 686062.09,3286791.99 686081.33,3286792.94 686081.33,3286792.94 686104.86,3286794.08 686104.86,3286794.08 686128.21,3286795.24 686128.21,3286795.24 686147.07,3286796.15 686147.07,3286796.15 686164.35,3286796.97 686164.35,3286796.97 686184.32,3286797.94 686184.32,3286797.94 686204.07,3286798.88 686204.07,3286798.88 686222.15,3286799.75 686222.15,3286799.75 686241.09,3286800.61 686241.09,3286800.61 686260.83,3286801.50 686260.83,3286801.50 686279.85,3286802.41 686279.85,3286802.41 686299.65,3286803.37 686299.65,3286803.37 686325.05,3286804.61 686325.05,3286804.61 686350.43,3286805.92 686350.43,3286805.92 686373.59,3286807.00 686373.59,3286807.00 686401.52,3286808.32 686401.52,3286808.32 686414.76,3286808.93 686414.76,3286808.93 686436.01,3286809.90 686436.01,3286809.90 686461.96,3286811.16 686461.96,3286811.16 686485.53,3286812.30 686485.53,3286812.30 686520.26,3286813.94 686520.26,3286813.94 686546.49,3286815.19 686546.49,3286815.19 686581.17,3286816.95 686581.17,3286816.95 686599.59,3286817.86 686599.59,3286817.86 686621.96,3286818.95 686621.96,3286818.95 686649.86,3286820.30 686649.86,3286820.30 686677.89,3286821.61 686677.89,3286821.61 686709.72,3286823.11 686709.72,3286823.11 686741.77,3286824.60 686741.77,3286824.60 686761.69,3286825.57 686761.69,3286825.57 686790.61,3286826.87 686790.61,3286826.87 686814.97,3286828.05 686814.97,3286828.05 686848.04,3286829.63 686848.04,3286829.63 686883.48,3286831.35 686883.48,3286831.35 686911.34,3286832.72 686911.34,3286832.72 686939.55,3286834.03 686939.55,3286834.03 686969.27,3286835.44 686969.27,3286835.44 686992.54,3286836.54 686992.54,3286836.54 687021.13,3286837.92 687021.13,3286837.92 687048.30,3286839.18 687048.30,3286839.18 687064.63,3286840.00 687064.63,3286840.00 687084.44,3286840.92 687084.44,3286840.92 687105.88,3286841.96 687105.88,3286841.96 687130.07,3286843.12 687130.07,3286843.12 687144.68,3286843.80 687144.68,3286843.80 687166.35,3286844.82 687166.35,3286844.82 687191.04,3286845.96 687191.04,3286845.96 687218.84,3286847.30 687218.84,3286847.30 687246.33,3286848.58 687246.33,3286848.58 687277.42,3286850.10 687277.42,3286850.10 687296.25,3286850.98 687296.25,3286850.98 687321.47,3286852.23 687321.47,3286852.23 687351.89,3286853.65 687351.89,3286853.65 687385.54,3286855.26 687385.54,3286855.26 687407.30,3286856.28 687407.30,3286856.28 687421.51,3286857.00 687421.51,3286857.00 687435.35,3286857.67 687435.35,3286857.67 687448.25,3286858.31 687448.25,3286858.31 687464.83,3286859.13 687464.83,3286859.13 687477.99,3286859.75 687477.99,3286859.75 687493.78,3286860.53 687493.78,3286860.53 687514.85,3286861.51 687514.85,3286861.51 687532.23,3286862.35 687532.23,3286862.35 687547.07,3286863.05 687547.07,3286863.05 687568.48,3286864.09 687568.48,3286864.09 687587.28,3286865.01 687587.28,3286865.01 687607.63,3286865.95 687607.63,3286865.95 687623.95,3286866.72 687623.95,3286866.72 687643.55,3286867.63 687643.55,3286867.63 687663.66,3286868.61 687663.66,3286868.61 687685.49,3286869.64 687685.49,3286869.64 687709.85,3286870.84 687709.85,3286870.84 687734.17,3286871.98 687734.17,3286871.98 687758.06,3286873.11 687758.06,3286873.11 687779.75,3286874.13 687779.75,3286874.13 687804.46,3286875.34 687804.46,3286875.34 687831.05,3286876.58 687831.05,3286876.58 687862.08,3286878.08 687862.08,3286878.08 687889.71,3286879.40 687889.71,3286879.40 687919.24,3286880.89 687919.24,3286880.89 687930.92,3286881.37 687930.92,3286881.37 687953.96,3286882.23 687953.96,3286882.23 687978.03,3286883.00 687978.03,3286883.00 687993.75,3286883.36 687993.75,3286883.36 688013.73,3286883.68 688013.73,3286883.68 688025.26,3286883.72 688025.26,3286883.72 688040.37,3286883.67 688040.37,3286883.67 688050.17,3286883.63 688050.17,3286883.63 688067.93,3286883.22 688067.93,3286883.22 688080.74,3286882.88 688080.74,3286882.88 688094.49,3286882.39 688094.49,3286882.39 688106.41,3286881.83 688106.41,3286881.83 688121.22,3286881.17 688121.22,3286881.17 688138.35,3286880.23 688138.35,3286880.23 688154.94,3286879.25 688154.94,3286879.25 688168.38,3286878.48 688168.38,3286878.48 688178.84,3286877.79 688178.84,3286877.79 688191.07,3286877.00 688191.07,3286877.00 688210.68,3286875.69 688210.68,3286875.69 688230.87,3286874.41 688230.87,3286874.41 688253.57,3286872.96 688253.57,3286872.96 688268.90,3286871.95 688268.90,3286871.95 688286.92,3286870.80 688286.92,3286870.80 688309.47,3286869.37 688309.47,3286869.37 688338.49,3286867.51 688338.49,3286867.51 688362.23,3286866.05 688362.23,3286866.05 688388.48,3286864.37 688388.48,3286864.37 688408.30,3286863.15 688408.30,3286863.15 688437.22,3286861.35 688437.22,3286861.35 688454.21,3286860.24 688454.21,3286860.24 688477.90,3286858.81 688477.90,3286858.81 688499.74,3286857.45 688499.74,3286857.45 688521.87,3286856.07 688521.87,3286856.07 688539.86,3286854.99 688539.86,3286854.99 688555.03,3286854.04 688555.03,3286854.04 688570.60,3286853.02 688570.60,3286853.02 688586.78,3286852.04 688586.78,3286852.04 688599.46,3286851.24 688599.46,3286851.24 688616.52,3286850.14 688616.52,3286850.14 688636.06,3286848.93 688636.06,3286848.93 688652.75,3286847.90 688652.75,3286847.90 688669.22,3286846.86 688669.22,3286846.86 688685.72,3286845.87 688685.72,3286845.87 688707.80,3286844.50 688707.80,3286844.50 688734.38,3286842.81 688734.38,3286842.81 688762.37,3286841.06 688762.37,3286841.06 688784.67,3286839.66 688784.67,3286839.66 688808.64,3286838.13 688808.64,3286838.13 688836.24,3286836.39 688836.24,3286836.39 688863.21,3286834.68 688863.21,3286834.68 688890.05,3286832.98 688890.05,3286832.98 688917.97,3286831.24 688917.97,3286831.24 688946.88,3286829.38 688946.88,3286829.38 688979.03,3286827.39 688979.03,3286827.39 689007.34,3286825.55 689007.34,3286825.55 689040.80,3286823.51 689040.80,3286823.51 689066.32,3286821.88 689066.32,3286821.88 689092.91,3286820.23 689092.91,3286820.23 689110.00,3286819.17 689110.00,3286819.17 689137.07,3286817.49 689137.07,3286817.49 689168.10,3286815.56 689168.10,3286815.56 689188.93,3286814.24 689188.93,3286814.24 689214.39,3286812.62 689214.39,3286812.62 689246.83,3286810.56 689246.83,3286810.56 689274.53,3286808.84 689274.53,3286808.84 689309.67,3286806.72 689309.67,3286806.72 689347.51,3286804.37 689347.51,3286804.37 689381.44,3286802.22 689381.44,3286802.22 689415.74,3286800.12 689415.74,3286800.12 689446.27,3286798.28 689446.27,3286798.28 689468.79,3286796.83 689468.79,3286796.83 689499.58,3286794.92 689499.58,3286794.92 689531.47,3286792.88 689531.47,3286792.88 689560.60,3286791.05 689560.60,3286791.05 689586.26,3286789.42 689586.26,3286789.42 689622.15,3286787.12 689622.15,3286787.12 689653.69,3286785.16 689653.69,3286785.16 689685.66,3286783.10 689685.66,3286783.10 689710.89,3286781.56 689710.89,3286781.56 689734.64,3286780.03 689734.64,3286780.03 689772.03,3286777.72 689772.03,3286777.72 689801.77,3286775.95 689801.77,3286775.95 689829.79,3286774.17 689829.79,3286774.17 689853.01,3286772.58 689853.01,3286772.58 689871.48,3286771.15 689871.48,3286771.15 689893.75,3286769.14 689893.75,3286769.14 689920.10,3286766.56 689920.10,3286766.56 689941.13,3286764.21 689941.13,3286764.21 689954.66,3286762.59 689954.66,3286762.59 689969.68,3286760.65 689969.68,3286760.65 689987.50,3286758.24 689987.50,3286758.24 690000.35,3286756.41 690000.35,3286756.41 690014.10,3286754.29 690014.10,3286754.29 690028.37,3286752.04 690028.37,3286752.04 690040.59,3286750.00 690040.59,3286750.00 690056.30,3286747.25 690056.30,3286747.25 690070.36,3286744.72 690070.36,3286744.72 690083.76,3286742.32 690083.76,3286742.32 690099.35,3286739.46 690099.35,3286739.46 690109.69,3286737.58 690109.69,3286737.58 690120.31,3286735.64 690120.31,3286735.64 690133.94,3286733.12 690133.94,3286733.12 690148.78,3286730.44 690148.78,3286730.44 690163.97,3286727.65 690163.97,3286727.65 690173.74,3286725.87 690173.74,3286725.87 690191.33,3286722.69 690191.33,3286722.69 690210.17,3286719.26 690210.17,3286719.26 690224.74,3286716.66 690224.74,3286716.66 690236.35,3286714.56 690236.35,3286714.56 690247.92,3286712.47 690247.92,3286712.47 690258.08,3286710.64 690258.08,3286710.64 690271.62,3286708.20 690271.62,3286708.20 690281.93,3286706.34 690281.93,3286706.34 690291.82,3286704.55 690291.82,3286704.55 690304.94,3286702.17 690304.94,3286702.17 690317.54,3286699.89 690317.54,3286699.89 690330.56,3286697.55 690330.56,3286697.55 690347.69,3286694.45 690347.69,3286694.45 690362.56,3286691.81 690362.56,3286691.81 690384.73,3286687.82 690384.73,3286687.82 690401.14,3286684.87 690401.14,3286684.87 690414.75,3286682.36 690414.75,3286682.36 690431.25,3286679.39 690431.25,3286679.39 690444.89,3286676.92 690444.89,3286676.92 690458.73,3286674.40 690458.73,3286674.40 690475.39,3286671.40 690475.39,3286671.40 690488.39,3286669.04 690488.39,3286669.04 690501.30,3286666.73 690501.30,3286666.73 690518.39,3286663.71 690518.39,3286663.71 690531.39,3286661.28 690531.39,3286661.28 690542.20,3286659.40 690542.20,3286659.40 690555.34,3286656.99 690555.34,3286656.99 690568.47,3286654.61 690568.47,3286654.61 690581.77,3286652.19 690581.77,3286652.19 690603.17,3286648.30 690603.17,3286648.30 690620.57,3286645.15 690620.57,3286645.15 690638.58,3286641.94 690638.58,3286641.94 690653.81,3286639.14 690653.81,3286639.14 690670.41,3286636.20 690670.41,3286636.20 690684.98,3286633.57 690684.98,3286633.57 690699.56,3286630.94 690699.56,3286630.94 690713.58,3286628.38 690713.58,3286628.38 690726.19,3286626.07 690726.19,3286626.07 690741.44,3286623.35 690741.44,3286623.35 690752.14,3286621.41 690752.14,3286621.41 690768.24,3286618.53 690768.24,3286618.53 690781.69,3286616.08 690781.69,3286616.08 690797.48,3286613.23 690797.48,3286613.23 690813.54,3286610.32 690813.54,3286610.32 690824.93,3286608.26 690824.93,3286608.26 690836.93,3286606.07 690836.93,3286606.07 690849.77,3286603.82 690849.77,3286603.82 690864.81,3286601.06 690864.81,3286601.06 690876.10,3286599.05 690876.10,3286599.05 690889.28,3286596.72 690889.28,3286596.72 690901.35,3286594.50 690901.35,3286594.50 690913.75,3286592.28 690913.75,3286592.28 690926.11,3286590.07 690926.11,3286590.07 690938.76,3286587.74 690938.76,3286587.74 690951.33,3286585.51 690951.33,3286585.51 690965.03,3286582.99 690965.03,3286582.99 690978.04,3286580.68 690978.04,3286580.68 690987.41,3286578.98 690987.41,3286578.98 691000.06,3286576.67 691000.06,3286576.67 691012.24,3286574.45 691012.24,3286574.45 691023.34,3286572.47 691023.34,3286572.47 691036.53,3286570.07 691036.53,3286570.07 691049.78,3286567.69 691049.78,3286567.69 691061.40,3286565.62 691061.40,3286565.62 691074.24,3286563.24 691074.24,3286563.24 691087.29,3286560.92 691087.29,3286560.92 691103.50,3286558.05 691103.50,3286558.05 691117.57,3286555.53 691117.57,3286555.53 691131.28,3286553.05 691131.28,3286553.05 691141.91,3286551.15 691141.91,3286551.15 691154.63,3286548.84 691154.63,3286548.84 691164.50,3286547.07 691164.50,3286547.07 691176.89,3286544.89 691176.89,3286544.89 691187.05,3286543.02 691187.05,3286543.02 691199.15,3286540.84 691199.15,3286540.84 691215.53,3286537.93 691215.53,3286537.93 691230.47,3286535.19 691230.47,3286535.19 691242.44,3286533.06 691242.44,3286533.06 691255.34,3286530.71 691255.34,3286530.71 691269.45,3286528.19 691269.45,3286528.19 691284.49,3286525.43 691284.49,3286525.43 691297.29,3286523.14 691297.29,3286523.14 691314.22,3286520.07 691314.22,3286520.07 691331.42,3286516.91 691331.42,3286516.91 691345.45,3286514.41 691345.45,3286514.41 691362.87,3286511.24 691362.87,3286511.24 691378.57,3286508.45 691378.57,3286508.45 691392.27,3286505.92 691392.27,3286505.92 691409.46,3286502.83 691409.46,3286502.83 691430.15,3286499.16 691430.15,3286499.16 691446.83,3286496.16 691446.83,3286496.16 691460.61,3286493.71 691460.61,3286493.71 691475.56,3286491.00 691475.56,3286491.00 691489.92,3286488.40 691489.92,3286488.40 691511.25,3286484.49 691511.25,3286484.49 691526.87,3286481.70 691526.87,3286481.70 691543.27,3286478.74 691543.27,3286478.74 691568.09,3286474.23 691568.09,3286474.23 691591.19,3286470.09 691591.19,3286470.09 691609.68,3286466.78 691609.68,3286466.78 691626.38,3286463.74 691626.38,3286463.74 691642.14,3286460.92 691642.14,3286460.92 691656.15,3286458.38 691656.15,3286458.38 691673.83,3286455.18 691673.83,3286455.18 691687.38,3286452.72 691687.38,3286452.72 691701.85,3286450.13 691701.85,3286450.13 691713.64,3286447.98 691713.64,3286447.98 691732.32,3286444.62 691732.32,3286444.62 691745.44,3286442.26 691745.44,3286442.26 691755.65,3286440.38 691755.65,3286440.38 691761.09,3286439.45 691761.09,3286439.45 691774.43,3286437.02 691774.43,3286437.02 691792.19,3286433.80 691792.19,3286433.80 691814.66,3286429.75 691814.66,3286429.75 691832.82,3286426.49 691832.82,3286426.49 691850.19,3286423.37 691850.19,3286423.37 691861.88,3286421.25 691861.88,3286421.25 691874.94,3286418.90 691874.94,3286418.90 691892.34,3286415.80 691892.34,3286415.80 691908.78,3286412.83 691908.78,3286412.83 691925.40,3286409.83 691925.40,3286409.83 691940.44,3286407.09 691940.44,3286407.09 691955.66,3286404.34 691955.66,3286404.34 691972.18,3286401.36 691972.18,3286401.36 691989.35,3286398.26 691989.35,3286398.26 692003.88,3286395.64 692003.88,3286395.64 692019.76,3286392.77 692019.76,3286392.77 692034.54,3286390.10 692034.54,3286390.10 692050.83,3286387.16 692050.83,3286387.16 692068.15,3286384.04 692068.15,3286384.04 692082.20,3286381.49 692082.20,3286381.49 692090.79,3286379.94 692090.79,3286379.94 692103.41,3286377.66 692103.41,3286377.66 692117.40,3286375.13 692117.40,3286375.13 692133.36,3286372.25 692133.36,3286372.25 692145.61,3286370.06 692145.61,3286370.06 692161.03,3286367.32 692161.03,3286367.32 692170.49,3286365.61 692170.49,3286365.61 692178.92,3286364.08 692178.92,3286364.08 692188.49,3286362.37 692188.49,3286362.37 692199.61,3286360.36 692199.61,3286360.36 692212.41,3286358.06 692212.41,3286358.06 692228.70,3286355.14 692228.70,3286355.14 692241.63,3286352.82 692241.63,3286352.82 692251.32,3286351.05 692251.32,3286351.05 692262.14,3286349.09 692262.14,3286349.09 692270.32,3286347.62 692270.32,3286347.62 692285.44,3286344.87 692285.44,3286344.87 692299.88,3286342.28 692299.88,3286342.28 692308.38,3286340.77 692308.38,3286340.77 692321.35,3286338.44 692321.35,3286338.44 692333.96,3286336.16 692333.96,3286336.16 692342.44,3286334.64 692342.44,3286334.64 692356.50,3286332.08 692356.50,3286332.08 692372.10,3286329.27 692372.10,3286329.27 692383.98,3286327.14 692383.98,3286327.14 692396.81,3286324.82 692396.81,3286324.82 692410.01,3286322.41 692410.01,3286322.41 692421.92,3286320.27 692421.92,3286320.27 692439.09,3286317.18 692439.09,3286317.18 692448.81,3286315.44 692448.81,3286315.44 692462.60,3286313.00 692462.60,3286313.00 692476.23,3286310.57 692476.23,3286310.57 692487.15,3286308.65 692487.15,3286308.65 692497.77,3286306.78 692497.77,3286306.78 692509.30,3286304.75 692509.30,3286304.75 692520.24,3286302.80 692520.24,3286302.80 692530.17,3286301.05 692530.17,3286301.05 692545.25,3286298.39 692545.25,3286298.39 692552.90,3286297.05 692552.90,3286297.05 692563.00,3286295.25 692563.00,3286295.25 692572.99,3286293.49 692572.99,3286293.49 692580.87,3286292.11 692580.87,3286292.11 692594.49,3286289.78 692594.49,3286289.78 692609.73,3286287.25 692609.73,3286287.25 692621.64,3286285.32 692621.64,3286285.32 692636.15,3286283.11 692636.15,3286283.11 692651.94,3286280.80 692651.94,3286280.80 692661.82,3286279.46 692661.82,3286279.46 692672.46,3286278.10 692672.46,3286278.10 692687.62,3286276.28 692687.62,3286276.28 692702.81,3286274.56 692702.81,3286274.56 692719.00,3286272.87 692719.00,3286272.87 692734.63,3286271.45 692734.63,3286271.45 692753.03,3286269.95 692753.03,3286269.95 692772.96,3286268.53 692772.96,3286268.53 692787.04,3286267.64">
        <lane index="0" width="3.66" type="shoulder" disallow="all" />
        <lane index="1" width="3.66" />
        <lane index="2" width="3.66" />
    </edge>
    <edge id="468.0" from="junction_87" to="node_468_end" numLanes="1" speed="13.89" type="town" shape="692879.06,3286257.10 692890.96,3286256.08 692890.96,3286256.08 692900.30,3286255.25 692900.30,3286255.25 692912.67,3286254.19 692912.67,3286254.19 692926.03,3286253.08 692926.03,3286253.08 692936.15,3286252.20 692936.15,3286252.20 692945.15,3286251.43 692945.15,3286251.43 692953.83,3286250.68 692953.83,3286250.68 692955.27,3286250.56">
        <lane index="0" width="3.66" />
    </edge>
    <edge id="471.0" from="node_471_start" to="junction_30" numLanes="2" speed="13.89" type="town" shape="693517.41,3286263.65 693521.97,3286263.65 693521.97,3286263.65 693527.96,3286263.65 693527.96,3286263.65 693535.14,3286263.64 693535.14,3286263.64 693544.22,3286263.62 693544.22,3286263.62 693557.26,3286263.62">
        <lane index="0" width="3.66" />
        <lane index="1" width="3.66" />
    </edge>
    <edge id="472.0" from="node_472_start" to="node_472_end" numLanes="3" speed="13.89" type="town" shape="692955.17,3286264.12 692958.56,3286264.13 692958.56,3286264.13 692965.43,3286264.11 692965.43,3286264.11 692974.12,3286264.11 692974.12,3286264.11 692981.89,3286264.10 692981.89,3286264.10 692992.04,3286264.10">
        <lane index="0" width="3.66" type="shoulder" disallow="all" />
        <lane index="1" width="3.66" />
        <lane index="2" width="3.66" />
    </edge>
    <edge id="473.0" from="node_473_start" to="node_473_end" numLanes="3" speed="13.89" type="town" shape="693149.79,3286264.08 693160.76,3286264.08 693160.76,3286264.08 693171.59,3286264.06 693171.59,3286264.06 693181.02,3286264.05 693181.02,3286264.05 693191.18,3286264.05 693191.18,3286264.05 693198.99,3286264.04 693198.99,3286264.04 693208.85,3286264.02 693208.85,3286264.02 693221.14,3286264.01 693221.14,3286264.01 693223.51,3286264.01">
        <lane index="0" width="3.66" type="shoulder" disallow="all" />
        <lane index="1" width="3.66" />
        <lane index="2" width="3.66" />
    </edge>
    <edge id="474.0" from="junction_87" to="node_472_start" numLanes="2" speed="13.89" type="town" shape="692878.99,3286264.49 692883.09,3286264.44 692883.09,3286264.44 692894.67,3286264.31 692894.67,3286264.31 692902.26,3286264.25 692902.26,3286264.25 692910.26,3286264.20 692910.26,3286264.20 692917.33,3286264.18 692917.33,3286264.18 692926.19,3286264.16 692926.19,3286264.16 692931.92,3286264.14 692931.92,3286264.14 692942.19,3286264.13 692942.19,3286264.13 692950.38,3286264.11 692950.38,3286264.11 692955.17,3286264.12">
        <lane index="0" width="3.66" />
        <lane index="1" width="3.66" />
    </edge>
    <edge id="475.0" from="node_475_start" to="node_475_end" numLanes="1" speed="13.89" type="town" shape="693303.24,3286224.06 693339.71,3286227.10 693339.71,3286227.10 693382.14,3286232.50 693382.14,3286232.50 693423.01,3286237.87 693423.01,3286237.87 693464.98,3286243.73 693464.98,3286243.73 693506.84,3286250.03 693506.84,3286250.03 693517.63,3286251.47">
        <lane index="0" width="3.66" />
    </edge>
    <edge id="476.0" from="node_468_end" to="node_476_end" numLanes="1" speed="13.89" type="town" shape="692955.27,3286250.56 692961.11,3286250.06 692961.11,3286250.06 692972.89,3286249.06 692972.89,3286249.06 692986.13,3286247.91 692986.13,3286247.91 692996.08,3286247.06 692996.08,3286247.06 693005.40,3286246.19 693005.40,3286246.19 693013.42,3286245.44 693013.42,3286245.44 693023.80,3286244.49 693023.80,3286244.49 693026.78,3286244.19 693026.78,3286244.19 693032.87,3286243.52 693032.87,3286243.52 693035.60,3286243.18 693035.60,3286243.18 693038.64,3286242.66 693038.64,3286242.66 693041.64,3286242.05 693041.64,3286242.05 693044.73,3286241.25 693044.73,3286241.25 693048.27,3286240.16 693048.27,3286240.16 693053.51,3286238.21 693053.51,3286238.21 693058.97,3286235.76 693058.97,3286235.76 693060.45,3286235.03">
        <lane index="0" width="3.66" />
    </edge>
    <edge id="477.0" from="node_472_end" to="node_473_start" numLanes="3" speed="13.89" type="town" shape="692992.04,3286264.10 693005.28,3286264.10 693005.28,3286264.10 693014.77,3286264.10 693014.77,3286264.10 693024.47,3286264.08 693024.47,3286264.08 693033.66,3286264.07 693033.66,3286264.07 693042.29,3286264.07 693042.29,3286264.07 693051.84,3286264.05 693051.84,3286264.05 693060.02,3286264.08 693060.02,3286264.08 693066.76,3286264.08 693066.76,3286264.08 693079.10,3286264.05 693079.10,3286264.05 693091.61,3286264.06 693091.61,3286264.06 693100.89,3286264.06 693100.89,3286264.06 693107.12,3286264.07 693107.12,3286264.07 693118.53,3286264.08 693118.53,3286264.08 693126.56,3286264.08 693126.56,3286264.08 693137.53,3286264.07 693137.53,3286264.07 693147.89,3286264.08 693147.89,3286264.08 693149.79,3286264.08">
        <lane index="0" width="3.66" type="shoulder" disallow="all" />
        <lane index="1" width="3.66" />
        <lane index="2" width="3.66" />
    </edge>