<?xml version="1.0" encoding="UTF-8"?>

<!-- generated on 2025-10-19 17:35:17 by Eclipse SUMO netconvert Version 1.23.1
<netconvertConfiguration xmlns:xsi="http://www.w3.org/2001/XMLSchema-instance" xsi:noNamespaceSchemaLocation="http://sumo.dlr.de/xsd/netconvertConfiguration.xsd">

    <input>
        <node-files value="/home/sdai/harry/TeraSim/jupiter/eb/jupiter_eb_tiles/tile_0083/tile_0083.nod.xml"/>
        <edge-files value="/home/sdai/harry/TeraSim/jupiter/eb/jupiter_eb_tiles/tile_0083/tile_0083.edg.xml"/>
        <connection-files value="/home/sdai/harry/TeraSim/jupiter/eb/jupiter_eb_tiles/tile_0083/tile_0083.con.xml"/>
    </input>

    <output>
        <output-file value="/home/sdai/harry/TeraSim/jupiter/eb/jupiter_eb_tiles/tile_0083/tile_0083.net.xml"/>
        <output.street-names value="true"/>
        <output.original-names value="true"/>
    </output>

    <processing>
        <geometry.remove value="false"/>
        <geometry.min-dist value="0.5"/>
        <edges.join value="false"/>
    </processing>

    <junctions>
        <no-internal-links value="false"/>
        <no-turnarounds value="true"/>
        <junctions.join value="true"/>
        <junctions.join-dist value="10"/>
        <junctions.corner-detail value="5"/>
        <junctions.internal-link-detail value="5"/>
        <junctions.limit-turn-speed value="5.5"/>
        <rectangular-lane-cut value="true"/>
        <check-lane-foes.all value="true"/>
    </junctions>

</netconvertConfiguration>
-->

<net version="1.20" junctionCornerDetail="5" junctionLinkDetail="5" rectangularLaneCut="true" limitTurnSpeed="5.50" checkLaneFoesAll="1" xmlns:xsi="http://www.w3.org/2001/XMLSchema-instance" xsi:noNamespaceSchemaLocation="http://sumo.dlr.de/xsd/net_file.xsd">

    <location netOffset="-683786.40,-3286035.81" convBoundary="0.00,0.00,16977.74,847.91" origBoundary="0.00,0.00,700854.31,3286883.72" projParameter="!"/>

    <edge id=":j_merge_end_29_0" function="internal">
        <lane id=":j_merge_end_29_0_0" index="0" speed="13.89" length="35.55" width="3.66" shape="444.46,664.53 454.03,666.07 461.59,668.93 469.16,671.78 478.73,673.33"/>
    </edge>
    <edge id=":j_merge_start_29_0" function="internal">
        <lane id=":j_merge_start_29_0_0" index="0" speed="13.89" length="65.18" width="3.66" shape="301.56,658.86 366.69,661.41"/>
    </edge>
    <edge id=":junction_30_0" function="internal">
        <lane id=":junction_30_0_0" index="0" speed="13.89" length="99.94" width="3.66" shape="9768.80,218.26 9784.39,219.09 9814.97,220.41 9847.43,221.64 9868.66,222.18"/>
    </edge>
    <edge id=":junction_30_1" function="internal">
        <lane id=":junction_30_1_0" index="0" speed="13.89" length="100.07" width="3.66" shape="9768.59,222.32 9868.66,222.18"/>
        <lane id=":junction_30_1_1" index="1" speed="13.89" length="100.07" width="3.66" shape="9768.59,225.98 9868.66,225.84"/>
    </edge>
    <edge id=":junction_87_0" function="internal">
        <lane id=":junction_87_0_0" index="0" speed="13.89" length="95.53" width="3.66" shape="9000.29,226.35 9095.56,219.21"/>
    </edge>
    <edge id=":junction_87_1" function="internal">
        <lane id=":junction_87_1_0" index="0" speed="13.89" length="95.42" width="3.66" shape="9000.29,226.35 9095.75,223.15"/>
        <lane id=":junction_87_1_1" index="1" speed="13.89" length="95.42" width="3.66" shape="9000.52,230.00 9095.79,226.81"/>
    </edge>
    <edge id=":node_468_end_0" function="internal">
        <lane id=":node_468_end_0_0" index="0" speed="13.89" length="0.30" width="3.66" shape="9168.57,212.94 9168.87,212.91"/>
    </edge>
    <edge id=":node_471_start_0" function="internal">
        <lane id=":node_471_start_0_0" index="0" speed="13.89" length="3.00" width="3.66" shape="9729.51,222.35 9732.51,222.35"/>
        <lane id=":node_471_start_0_1" index="1" speed="13.89" length="3.00" width="3.66" shape="9729.51,226.01 9732.51,226.01"/>
    </edge>
    <edge id=":node_472_end_0" function="internal">
        <lane id=":node_472_end_0_0" index="0" speed="13.89" length="0.10" width="3.66" shape="9205.64,222.80 9205.64,222.80"/>
        <lane id=":node_472_end_0_1" index="1" speed="13.89" length="0.10" width="3.66" shape="9205.64,226.46 9205.64,226.46"/>
    </edge>
    <edge id=":node_472_start_0" function="internal">
        <lane id=":node_472_start_0_0" index="0" speed="13.89" length="3.00" width="3.66" shape="9167.28,222.82 9170.28,222.82"/>
        <lane id=":node_472_start_0_1" index="1" speed="13.89" length="3.00" width="3.66" shape="9167.28,226.48 9170.27,226.48"/>
    </edge>
    <edge id=":node_473_end_0" function="internal">
        <lane id=":node_473_end_0_0" index="0" speed="13.89" length="0.30" width="3.66" shape="9436.96,222.71 9437.26,222.71"/>
        <lane id=":node_473_end_0_1" index="1" speed="13.89" length="0.30" width="3.66" shape="9436.96,226.37 9437.26,226.37"/>
    </edge>
    <edge id=":node_473_start_0" function="internal">
        <lane id=":node_473_start_0_0" index="0" speed="13.89" length="0.10" width="3.66" shape="9363.39,222.78 9363.39,222.78"/>
        <lane id=":node_473_start_0_1" index="1" speed="13.89" length="0.10" width="3.66" shape="9363.39,226.44 9363.39,226.44"/>
    </edge>
    <edge id=":node_475_end_0" function="internal">
        <lane id=":node_475_end_0_0" index="0" speed="13.89" length="0.30" width="3.66" shape="9731.32,213.83 9731.62,213.87"/>
    </edge>
    <edge id=":node_478_end_0" function="internal">
        <lane id=":node_478_end_0_0" index="0" speed="13.89" length="0.30" width="3.66" shape="15174.26,88.96 15174.56,88.98"/>
        <lane id=":node_478_end_0_1" index="1" speed="13.89" length="0.30" width="3.66" shape="15173.96,92.60 15174.25,92.63"/>
    </edge>
    <edge id=":node_479_end_0" function="internal">
        <lane id=":node_479_end_0_0" index="0" speed="13.89" length="0.30" width="3.66" shape="9486.54,222.60 9486.85,222.60"/>
        <lane id=":node_479_end_0_1" index="1" speed="13.89" length="0.30" width="3.66" shape="9486.55,226.26 9486.85,226.26"/>
    </edge>
    <edge id=":node_484_start_0" function="internal">
        <lane id=":node_484_start_0_0" index="0" speed="13.89" length="0.10" width="3.66" shape="16277.92,181.85 16277.92,181.85"/>
        <lane id=":node_484_start_0_1" index="1" speed="13.89" length="0.10" width="3.66" shape="16277.62,185.50 16277.62,185.50"/>
    </edge>
    <edge id=":node_486_end_0" function="internal">
        <lane id=":node_486_end_0_0" index="0" speed="13.89" length="0.30" width="3.66" shape="15264.04,96.58 15264.34,96.60"/>
        <lane id=":node_486_end_0_1" index="1" speed="13.89" length="0.30" width="3.66" shape="15263.73,100.22 15264.03,100.25"/>
    </edge>
    <edge id=":node_487_end_0" function="internal">
        <lane id=":node_487_end_0_0" index="0" speed="13.89" length="0.29" width="3.66" shape="16209.49,176.14 16209.80,176.17"/>
        <lane id=":node_487_end_0_1" index="1" speed="13.89" length="0.29" width="3.66" shape="16209.18,179.79 16209.45,179.81"/>
    </edge>
    <edge id=":node_487_start_0" function="internal">
        <lane id=":node_487_start_0_0" index="0" speed="13.89" length="3.00" width="3.66" shape="15741.63,136.72 15744.62,136.96"/>
        <lane id=":node_487_start_0_1" index="1" speed="13.89" length="3.00" width="3.66" shape="15741.34,140.37 15744.32,140.61"/>
    </edge>
    <edge id=":node_493_end_0" function="internal">
        <lane id=":node_493_end_0_0" index="0" speed="13.89" length="3.00" width="3.66" shape="15551.33,120.72 15554.32,120.98"/>
        <lane id=":node_493_end_0_1" index="1" speed="13.89" length="3.00" width="3.66" shape="15551.02,124.37 15554.01,124.62"/>
    </edge>
    <edge id=":node_493_start_0" function="internal">
        <lane id=":node_493_start_0_0" index="0" speed="13.89" length="0.30" width="3.66" shape="15340.23,102.95 15340.53,102.97"/>
        <lane id=":node_493_start_0_1" index="1" speed="13.89" length="0.30" width="3.66" shape="15339.93,106.59 15340.23,106.62"/>
    </edge>

    <edge id="453.0" from="node_453_start" to="j_merge_start_29" priority="-1" type="town" shape="0.00,613.82 17.27,616.64 74.74,627.19 105.61,632.91 143.15,639.74 164.70,643.85 179.38,646.34 202.32,650.22 217.74,652.39 235.28,654.74 251.77,656.52 262.19,657.56 275.18,658.71 288.84,659.81 301.43,660.69">
        <lane id="453.0_0" index="0" speed="13.89" length="305.10" width="3.66" shape="0.29,612.01 17.58,614.84 75.07,625.39 105.94,631.11 143.49,637.94 165.02,642.05 179.69,644.54 202.60,648.41 217.99,650.58 235.50,652.92 251.96,654.70 262.36,655.74 275.33,656.89 288.98,657.99 301.56,658.86"/>
    </edge>
    <edge id="464.0" from="j_merge_end_29" to="junction_87" priority="-1" type="town" shape="478.65,675.16 492.70,675.74 507.97,676.41 522.27,677.01 534.11,677.52 543.79,677.90 555.57,678.38 566.88,678.87 583.18,679.59 600.34,680.25 616.11,680.86 631.72,681.52 649.04,682.21 662.70,682.78 676.11,683.30 689.33,683.89 701.10,684.39 715.25,684.97 730.61,685.62 743.26,686.16 758.17,686.79 768.31,687.24 776.91,687.60 786.20,688.03 796.12,688.44 806.37,688.86 814.80,689.22 823.21,689.54 833.83,690.01 842.77,690.33 851.48,690.66 861.13,691.03 878.35,691.73 889.00,692.12 898.80,692.50 908.10,692.85 920.38,693.33 931.27,693.79 945.07,694.34 956.84,694.80 967.83,695.25 978.97,695.69 989.70,696.14 1000.66,696.63 1012.47,697.11 1025.93,697.67 1038.59,698.21 1050.24,698.71 1061.82,699.20 1075.34,699.79 1087.39,700.27 1098.26,700.74 1113.12,701.37 1125.77,701.91 1144.13,702.69 1160.12,703.32 1174.79,703.98 1189.93,704.63 1206.55,705.37 1221.62,706.05 1232.76,706.60 1244.14,707.09 1255.47,707.66 1266.97,708.21 1282.64,708.97 1294.70,709.53 1309.15,710.20 1311.90,710.30 1336.60,711.46 1355.92,712.37 1375.27,713.29 1393.67,714.12 1409.25,714.86 1424.66,715.61 1447.27,716.68 1462.40,717.41 1479.28,718.24 1493.92,718.93 1510.60,719.71 1523.30,720.30 1543.61,721.31 1565.68,722.29 1589.76,723.43 1615.31,724.66 1642.84,726.01 1668.86,727.25 1700.32,728.77 1723.22,729.83 1748.51,731.09 1773.71,732.25 1794.90,733.26 1818.75,734.42 1839.99,735.46 1861.07,736.50 1891.29,737.96 1921.01,739.41 1941.20,740.31 1957.34,741.09 1980.10,742.16 2009.09,743.52 2034.71,744.77 2058.14,745.93 2080.82,747.02 2101.43,748.00 2126.47,749.10 2154.53,750.38 2176.98,751.45 2195.20,752.28 2217.45,753.41 2236.65,754.33 2254.52,755.17 2275.69,756.18 2294.93,757.13 2318.46,758.27 2341.81,759.43 2360.67,760.34 2377.95,761.16 2397.92,762.13 2417.67,763.07 2435.75,763.94 2454.69,764.80 2474.43,765.69 2493.45,766.60 2513.25,767.56 2538.65,768.80 2564.03,770.11 2587.19,771.19 2615.12,772.51 2628.36,773.12 2649.61,774.09 2675.56,775.35 2699.13,776.49 2733.86,778.13 2760.09,779.38 2794.77,781.14 2813.19,782.05 2835.56,783.14 2863.46,784.49 2891.49,785.80 2923.32,787.30 2955.37,788.79 2975.29,789.76 3004.21,791.06 3028.57,792.24 3061.64,793.82 3097.08,795.54 3124.94,796.91 3153.15,798.22 3182.87,799.63 3206.14,800.73 3234.73,802.11 3261.90,803.37 3278.23,804.19 3298.04,805.11 3319.48,806.15 3343.67,807.31 3358.28,807.99 3379.95,809.01 3404.64,810.15 3432.44,811.49 3459.93,812.77 3491.02,814.29 3509.85,815.17 3535.07,816.42 3565.49,817.84 3599.14,819.45 3620.90,820.47 3635.11,821.19 3648.95,821.86 3661.85,822.50 3678.43,823.32 3691.59,823.94 3707.38,824.72 3728.45,825.70 3745.83,826.54 3760.67,827.24 3782.08,828.28 3800.88,829.20 3821.23,830.14 3837.55,830.91 3857.15,831.82 3877.26,832.80 3899.09,833.83 3923.45,835.03 3947.77,836.17 3971.66,837.30 3993.35,838.32 4018.06,839.53 4044.65,840.77 4075.68,842.27 4103.31,843.59 4132.84,845.08 4144.52,845.56 4167.56,846.42 4191.63,847.19 4207.35,847.55 4227.33,847.87 4238.86,847.91 4253.97,847.86 4263.77,847.82 4281.53,847.41 4294.34,847.07 4308.09,846.58 4320.01,846.02 4334.82,845.36 4351.95,844.42 4368.54,843.44 4381.98,842.67 4392.44,841.98 4404.67,841.19 4424.28,839.88 4444.47,838.60 4467.17,837.15 4482.50,836.14 4500.52,834.99 4523.07,833.56 4552.09,831.70 4575.83,830.24 4602.08,828.56 4621.90,827.34 4650.82,825.54 4667.81,824.43 4691.50,823.00 4713.34,821.64 4735.47,820.26 4753.46,819.18 4768.63,818.23 4784.20,817.21 4800.38,816.23 4813.06,815.43 4830.12,814.33 4849.66,813.12 4866.35,812.09 4882.82,811.05 4899.32,810.06 4921.40,808.69 4947.98,807.00 4975.97,805.25 4998.27,803.85 5022.24,802.32 5049.84,800.58 5076.81,798.87 5103.65,797.17 5131.57,795.43 5160.48,793.57 5192.63,791.58 5220.94,789.74 5254.40,787.70 5279.92,786.07 5306.51,784.42 5323.60,783.36 5350.67,781.68 5381.70,779.75 5402.53,778.43 5427.99,776.81 5460.43,774.75 5488.13,773.03 5523.27,770.91 5561.11,768.56 5595.04,766.41 5629.34,764.31 5659.87,762.47 5682.39,761.02 5713.18,759.11 5745.07,757.07 5774.20,755.24 5799.86,753.61 5835.75,751.31 5867.29,749.35 5899.26,747.29 5924.49,745.75 5948.24,744.22 5985.63,741.91 6015.37,740.14 6043.39,738.36 6066.61,736.77 6085.08,735.34 6107.35,733.33 6133.70,730.75 6154.73,728.40 6168.26,726.78 6183.28,724.84 6201.10,722.43 6213.95,720.60 6227.70,718.48 6241.97,716.23 6254.19,714.19 6269.90,711.44 6283.96,708.91 6297.36,706.51 6312.95,703.65 6323.29,701.77 6333.91,699.83 6347.54,697.31 6362.38,694.63 6377.57,691.84 6387.34,690.06 6404.93,686.88 6423.77,683.45 6438.34,680.85 6449.95,678.75 6461.52,676.66 6471.68,674.83 6485.22,672.39 6495.53,670.53 6505.42,668.74 6518.54,666.36 6531.14,664.08 6544.16,661.74 6561.29,658.64 6576.16,656.00 6598.33,652.01 6614.74,649.06 6628.35,646.55 6644.85,643.58 6658.49,641.11 6672.33,638.59 6688.99,635.59 6701.99,633.23 6714.90,630.92 6731.99,627.90 6744.99,625.47 6755.80,623.59 6768.94,621.18 6782.07,618.80 6795.37,616.38 6816.77,612.49 6834.17,609.34 6852.18,606.13 6867.41,603.33 6884.01,600.39 6898.58,597.76 6913.16,595.13 6927.18,592.57 6939.79,590.26 6955.04,587.54 6965.74,585.60 6981.84,582.72 6995.29,580.27 7011.08,577.42 7027.14,574.51 7038.53,572.45 7050.53,570.26 7063.37,568.01 7078.41,565.25 7089.70,563.24 7102.88,560.91 7114.95,558.69 7127.35,556.47 7139.71,554.26 7152.36,551.93 7164.93,549.70 7178.63,547.18 7191.64,544.87 7201.01,543.17 7213.66,540.86 7225.84,538.64 7236.94,536.66 7250.13,534.26 7263.38,531.88 7275.00,529.81 7287.84,527.43 7300.89,525.11 7317.10,522.24 7331.17,519.72 7344.88,517.24 7355.51,515.34 7368.23,513.03 7378.10,511.26 7390.49,509.08 7400.65,507.21 7412.75,505.03 7429.13,502.12 7444.07,499.38 7456.04,497.25 7468.94,494.90 7483.05,492.38 7498.09,489.62 7510.89,487.33 7527.82,484.26 7545.02,481.10 7559.05,478.60 7576.47,475.43 7592.17,472.64 7605.87,470.11 7623.06,467.02 7643.75,463.35 7660.43,460.35 7674.21,457.90 7689.16,455.19 7703.52,452.59 7724.85,448.68 7740.47,445.89 7756.87,442.93 7781.69,438.42 7804.79,434.28 7823.28,430.97 7839.98,427.93 7855.74,425.11 7869.75,422.57 7887.43,419.37 7900.98,416.91 7915.45,414.32 7927.24,412.17 7945.92,408.81 7959.04,406.45 7969.25,404.57 7974.69,403.64 7988.03,401.21 8005.79,397.99 8028.26,393.94 8046.42,390.68 8063.79,387.56 8075.48,385.44 8088.54,383.09 8105.94,379.99 8122.38,377.02 8139.00,374.02 8154.04,371.28 8169.26,368.53 8185.78,365.55 8202.95,362.45 8217.48,359.83 8233.36,356.96 8248.14,354.29 8264.43,351.35 8281.75,348.23 8295.80,345.68 8304.39,344.13 8317.01,341.85 8331.00,339.32 8346.96,336.44 8359.21,334.25 8374.63,331.51 8384.09,329.80 8392.52,328.27 8402.09,326.56 8413.21,324.55 8426.01,322.25 8442.30,319.33 8455.23,317.01 8464.92,315.24 8475.74,313.28 8483.92,311.81 8499.04,309.06 8513.48,306.47 8521.98,304.96 8534.95,302.63 8547.56,300.35 8556.04,298.83 8570.10,296.27 8585.70,293.46 8597.58,291.33 8610.41,289.01 8623.61,286.60 8635.52,284.46 8652.69,281.37 8662.41,279.63 8676.20,277.19 8689.83,274.76 8700.75,272.84 8711.37,270.97 8722.90,268.94 8733.84,266.99 8743.77,265.24 8758.85,262.58 8766.50,261.24 8776.60,259.44 8786.59,257.68 8794.47,256.30 8808.09,253.97 8823.33,251.44 8835.24,249.51 8849.75,247.30 8865.54,244.99 8875.42,243.65 8886.06,242.29 8901.22,240.47 8916.41,238.75 8932.60,237.06 8948.23,235.64 8966.63,234.14 8986.56,232.72 9000.64,231.83">
        <lane id="464.0_0" index="0" disallow="all" speed="13.89" length="8572.82" width="3.66" shape="479.03,666.02 493.09,666.60 508.36,667.27 522.66,667.87 534.49,668.38 544.16,668.76 555.95,669.24 567.28,669.73 583.56,670.45 600.69,671.11 616.48,671.72 632.09,672.38 649.41,673.07 663.07,673.64 676.49,674.16 689.73,674.75 701.48,675.25 715.63,675.83 731.00,676.48 743.65,677.02 758.56,677.65 768.71,678.10 777.31,678.46 786.60,678.89 796.50,679.30 806.75,679.72 815.17,680.08 823.59,680.40 834.20,680.87 843.11,681.19 851.83,681.52 861.49,681.89 878.71,682.59 889.34,682.98 899.15,683.36 908.45,683.71 920.75,684.19 931.64,684.65 945.43,685.20 957.21,685.66 968.20,686.11 979.34,686.55 990.10,687.00 1001.05,687.49 1012.85,687.97 1026.31,688.53 1038.98,689.07 1050.63,689.57 1062.21,690.06 1075.72,690.65 1087.77,691.13 1098.65,691.60 1113.51,692.23 1126.16,692.77 1144.51,693.55 1160.50,694.18 1175.19,694.84 1190.33,695.49 1206.96,696.23 1222.05,696.91 1233.18,697.46 1244.57,697.95 1255.92,698.52 1267.41,699.07 1283.08,699.83 1295.12,700.39 1309.56,701.06 1312.28,701.16 1337.03,702.32 1356.35,703.23 1375.69,704.15 1394.09,704.98 1409.69,705.72 1425.10,706.47 1447.71,707.54 1462.85,708.27 1479.72,709.10 1494.35,709.79 1511.03,710.57 1523.74,711.16 1544.04,712.17 1566.10,713.15 1590.20,714.29 1615.75,715.52 1643.28,716.87 1669.30,718.11 1700.75,719.63 1723.66,720.69 1748.95,721.95 1774.14,723.11 1795.34,724.12 1819.20,725.28 1840.44,726.32 1861.52,727.36 1891.73,728.82 1921.44,730.27 1941.62,731.17 1957.77,731.95 1980.53,733.02 2009.53,734.38 2035.16,735.63 2058.59,736.79 2081.26,737.88 2101.85,738.86 2126.88,739.96 2154.96,741.24 2177.41,742.31 2195.64,743.14 2217.90,744.27 2237.08,745.19 2254.95,746.03 2276.13,747.04 2295.38,747.99 2318.91,749.13 2342.26,750.29 2361.11,751.20 2378.39,752.02 2398.36,752.99 2418.11,753.93 2436.18,754.80 2455.10,755.66 2474.85,756.55 2493.89,757.46 2513.69,758.42 2539.11,759.66 2564.48,760.97 2587.62,762.05 2615.55,763.37 2628.78,763.98 2650.04,764.95 2676.00,766.21 2699.57,767.35 2734.29,768.99 2760.54,770.24 2795.23,772.00 2813.64,772.91 2836.00,774.00 2863.89,775.35 2891.92,776.66 2923.75,778.16 2955.80,779.65 2975.72,780.62 3004.64,781.92 3029.01,783.10 3062.08,784.68 3097.53,786.40 3125.38,787.77 3153.58,789.08 3183.30,790.49 3206.58,791.59 3235.16,792.97 3262.34,794.23 3278.67,795.05 3298.47,795.97 3319.92,797.01 3344.10,798.17 3358.71,798.85 3380.38,799.87 3405.07,801.01 3432.87,802.35 3460.37,803.63 3491.46,805.15 3510.29,806.03 3535.51,807.28 3565.92,808.70 3599.57,810.31 3621.34,811.33 3635.56,812.05 3649.40,812.72 3662.30,813.36 3678.87,814.18 3692.03,814.80 3707.82,815.58 3728.88,816.56 3746.27,817.40 3761.11,818.10 3782.53,819.14 3801.31,820.06 3821.66,821.00 3837.98,821.77 3857.59,822.68 3877.70,823.66 3899.53,824.69 3923.89,825.89 3948.20,827.03 3972.09,828.16 3993.79,829.18 4018.50,830.39 4045.08,831.63 4076.12,833.13 4103.76,834.45 4133.26,835.94 4144.87,836.42 4167.88,837.28 4191.88,838.04 4207.53,838.40 4227.42,838.72 4238.86,838.76 4253.94,838.71 4263.65,838.67 4281.31,838.26 4294.06,837.92 4307.71,837.44 4319.59,836.88 4334.37,836.22 4351.43,835.28 4368.01,834.31 4381.42,833.54 4391.84,832.85 4404.07,832.06 4423.69,830.75 4443.89,829.47 4466.58,828.02 4481.91,827.01 4499.94,825.86 4522.49,824.43 4551.52,822.57 4575.26,821.11 4601.51,819.43 4621.33,818.21 4650.24,816.41 4667.24,815.30 4690.94,813.87 4712.77,812.51 4734.91,811.13 4752.90,810.05 4768.04,809.10 4783.62,808.08 4799.82,807.10 4812.48,806.30 4829.54,805.20 4849.10,803.99 4865.78,802.96 4882.26,801.92 4898.76,800.93 4920.83,799.56 4947.40,797.87 4975.40,796.12 4997.69,794.72 5021.66,793.19 5049.26,791.45 5076.23,789.74 5103.08,788.04 5130.99,786.30 5159.90,784.44 5192.05,782.45 5220.36,780.61 5253.83,778.57 5279.35,776.94 5305.94,775.29 5323.03,774.23 5350.10,772.55 5381.13,770.62 5401.95,769.30 5427.41,767.68 5459.86,765.62 5487.57,763.90 5522.71,761.78 5560.54,759.43 5594.47,757.28 5628.78,755.18 5659.30,753.34 5681.81,751.89 5712.60,749.98 5744.49,747.94 5773.62,746.11 5799.28,744.48 5835.17,742.18 5866.71,740.22 5898.69,738.16 5923.92,736.62 5947.67,735.09 5985.07,732.78 6014.81,731.01 6042.79,729.23 6065.94,727.64 6084.32,726.22 6106.49,724.22 6132.75,721.65 6153.68,719.31 6167.13,717.70 6182.08,715.77 6199.85,713.37 6212.61,711.55 6226.29,709.44 6240.50,707.20 6252.65,705.17 6268.30,702.43 6282.34,699.90 6295.73,697.51 6311.30,694.65 6321.65,692.77 6332.25,690.83 6345.90,688.31 6360.74,685.63 6375.92,682.84 6385.71,681.06 6403.30,677.88 6422.14,674.45 6436.72,671.84 6448.32,669.75 6459.90,667.66 6470.06,665.82 6483.60,663.39 6493.90,661.53 6503.79,659.74 6516.91,657.36 6529.52,655.08 6542.54,652.74 6559.67,649.63 6574.55,646.99 6596.71,643.00 6613.10,640.06 6626.71,637.55 6643.22,634.58 6656.86,632.11 6670.70,629.59 6687.36,626.59 6700.37,624.23 6713.30,621.91 6730.35,618.90 6743.37,616.47 6754.19,614.58 6767.30,612.18 6780.43,609.80 6793.73,607.38 6815.14,603.49 6832.55,600.33 6850.55,597.13 6865.78,594.33 6882.40,591.38 6896.96,588.76 6911.53,586.13 6925.53,583.57 6938.16,581.26 6953.42,578.53 6964.12,576.59 6980.22,573.72 6993.66,571.27 7009.45,568.42 7025.51,565.51 7036.89,563.45 7048.92,561.25 7061.75,559.00 7076.78,556.25 7088.10,554.23 7101.26,551.91 7113.32,549.69 7125.74,547.46 7138.08,545.26 7150.73,542.93 7163.30,540.70 7177.00,538.18 7190.03,535.86 7199.37,534.17 7212.02,531.86 7224.22,529.64 7235.32,527.66 7248.50,525.26 7261.77,522.87 7273.36,520.81 7286.21,518.43 7299.29,516.10 7315.50,513.23 7329.55,510.71 7343.26,508.23 7353.89,506.34 7366.60,504.03 7376.50,502.25 7388.87,500.07 7399.01,498.21 7411.14,496.02 7427.51,493.12 7442.44,490.38 7454.42,488.24 7467.32,485.90 7481.42,483.38 7496.46,480.62 7509.27,478.33 7526.18,475.26 7543.39,472.10 7557.43,469.60 7574.85,466.42 7590.54,463.64 7604.23,461.11 7621.45,458.01 7642.14,454.34 7658.82,451.34 7672.59,448.89 7687.53,446.19 7701.88,443.59 7723.22,439.68 7738.85,436.88 7755.24,433.93 7780.06,429.42 7803.18,425.27 7821.66,421.97 7838.35,418.93 7854.12,416.10 7868.12,413.57 7885.80,410.37 7899.36,407.91 7913.82,405.32 7925.61,403.17 7944.30,399.80 7957.40,397.45 7967.63,395.56 7973.10,394.63 7986.39,392.21 8004.16,388.99 8026.64,384.93 8044.80,381.67 8062.17,378.56 8073.85,376.44 8086.93,374.08 8104.32,370.98 8120.75,368.02 8137.37,365.02 8152.41,362.28 8167.63,359.53 8184.15,356.55 8201.33,353.45 8215.85,350.83 8231.73,347.96 8246.51,345.29 8262.81,342.35 8280.12,339.23 8294.17,336.68 8302.76,335.13 8315.38,332.85 8329.37,330.32 8345.34,327.43 8357.61,325.24 8373.02,322.50 8382.46,320.80 8390.90,319.26 8400.47,317.55 8411.59,315.55 8424.39,313.24 8440.68,310.32 8453.60,308.01 8463.28,306.24 8474.11,304.28 8482.29,302.81 8497.41,300.06 8511.87,297.46 8520.37,295.95 8533.33,293.63 8545.94,291.35 8554.41,289.83 8568.47,287.27 8584.08,284.45 8595.96,282.32 8608.77,280.01 8621.98,277.60 8633.90,275.45 8651.07,272.36 8660.81,270.62 8674.60,268.18 8688.23,265.75 8699.16,263.83 8709.78,261.96 8721.30,259.93 8732.24,257.98 8742.18,256.23 8757.26,253.57 8764.91,252.23 8775.00,250.43 8785.01,248.67 8792.91,247.28 8806.57,244.95 8821.85,242.41 8833.82,240.47 8848.40,238.25 8864.26,235.93 8874.23,234.58 8884.93,233.21 8900.16,231.38 8915.42,229.65 8931.71,227.95 8947.44,226.52 8965.93,225.02 8985.95,223.59 9000.06,222.70" type="shoulder"/>