<?xml version="1.0" encoding="UTF-8"?>

<!-- generated on 2025-10-19 17:33:40 by Eclipse SUMO netconvert Version 1.23.1
<netconvertConfiguration xmlns:xsi="http://www.w3.org/2001/XMLSchema-instance" xsi:noNamespaceSchemaLocation="http://sumo.dlr.de/xsd/netconvertConfiguration.xsd">

    <input>
        <node-files value="/home/sdai/harry/TeraSim/jupiter/wb/jupiter_wb.nod.xml"/>
        <edge-files value="/home/sdai/harry/TeraSim/jupiter/wb/jupiter_wb.edg.xml"/>
        <connection-files value="/home/sdai/harry/TeraSim/jupiter/wb/jupiter_wb.con.xml"/>
    </input>

    <output>
        <output-file value="/home/sdai/harry/TeraSim/jupiter/wb/jupiter_wb.net.xml"/>
        <output.street-names value="true"/>
        <output.original-names value="true"/>
    </output>

    <processing>
        <geometry.remove value="false"/>
        <geometry.min-dist value="0.5"/>
        <edges.join value="false"/>
    </processing>

    <junctions>
        <no-internal-links value="false"/>
        <no-turnarounds value="true"/>
        <junctions.join value="true"/>
        <junctions.join-dist value="10"/>
        <junctions.corner-detail value="5"/>
        <junctions.internal-link-detail value="5"/>
        <junctions.limit-turn-speed value="5.5"/>
        <rectangular-lane-cut value="true"/>
        <check-lane-foes.all value="true"/>
    </junctions>

</netconvertConfiguration>
-->

<net version="1.20" junctionCornerDetail="5" junctionLinkDetail="5" rectangularLaneCut="true" limitTurnSpeed="5.50" checkLaneFoesAll="1" xmlns:xsi="http://www.w3.org/2001/XMLSchema-instance" xsi:noNamespaceSchemaLocation="http://sumo.dlr.de/xsd/net_file.xsd">

    <location netOffset="-563427.30,-3258001.36" convBoundary="0.00,0.00,240824.99,40519.32" origBoundary="563427.30,3258001.36,804252.29,3298520.68" projParameter="!"/>

    <edge id=":j_merge_end_1_0" function="internal">
        <lane id=":j_merge_end_1_0_0" index="0" disallow="all" speed="13.89" length="47.07" width="3.66" shape="216456.96,39536.44 216442.99,39532.65 216434.53,39525.85 216426.07,39519.06 216412.10,39515.31"/>
        <lane id=":j_merge_end_1_0_1" index="1" speed="13.89" length="47.07" width="3.66" shape="216457.45,39529.13 216411.38,39526.26"/>
        <lane id=":j_merge_end_1_0_2" index="2" speed="13.89" length="47.07" width="3.66" shape="216457.70,39525.48 216411.62,39522.61"/>
        <lane id=":j_merge_end_1_0_3" index="3" speed="13.89" length="47.07" width="3.66" shape="216457.95,39521.83 216411.86,39518.96"/>
        <lane id=":j_merge_end_1_0_4" index="4" disallow="all" speed="13.89" length="47.07" width="3.66" shape="216458.20,39518.18 216412.10,39515.31"/>
    </edge>
    <edge id=":j_merge_end_12_0" function="internal">
        <lane id=":j_merge_end_12_0_0" index="0" speed="13.89" length="38.48" width="3.66" shape="169222.04,29253.30 169211.89,29251.87 169203.05,29249.11 169194.20,29246.36 169184.05,29244.94"/>
        <lane id=":j_merge_end_12_0_1" index="1" speed="13.89" length="38.48" width="3.66" shape="169222.14,29249.64 169183.95,29248.60"/>
        <lane id=":j_merge_end_12_0_2" index="2" speed="13.89" length="38.48" width="3.66" shape="169222.24,29245.98 169184.05,29244.94"/>
    </edge>
    <edge id=":j_merge_end_13_0" function="internal">
        <lane id=":j_merge_end_13_0_0" index="0" speed="13.89" length="2.64" width="3.66" shape="167265.47,29197.91 167265.39,29190.59"/>
        <lane id=":j_merge_end_13_0_1" index="1" speed="13.89" length="2.64" width="3.66" shape="167265.58,29194.25 167265.29,29194.25"/>
        <lane id=":j_merge_end_13_0_2" index="2" speed="13.89" length="2.64" width="3.66" shape="167265.70,29190.60 167265.39,29190.59"/>
    </edge>
    <edge id=":j_merge_end_14_0" function="internal">
        <lane id=":j_merge_end_14_0_0" index="0" speed="13.89" length="35.25" width="3.66" shape="170841.43,29299.20 170831.08,29297.76 170822.18,29294.98 170814.23,29292.24 170806.69,29290.89"/>
        <lane id=":j_merge_end_14_0_1" index="1" speed="13.89" length="35.25" width="3.66" shape="170841.53,29295.54 170806.59,29294.55"/>
        <lane id=":j_merge_end_14_0_2" index="2" speed="13.89" length="35.25" width="3.66" shape="170841.64,29291.88 170806.69,29290.89"/>
    </edge>
    <edge id=":j_merge_end_17_0" function="internal">
        <lane id=":j_merge_end_17_0_0" index="0" speed="13.89" length="33.45" width="3.66" shape="144275.95,29031.60 144266.72,29033.66 144259.10,29033.55 144251.45,29033.33 144242.12,29035.11"/>
        <lane id=":j_merge_end_17_0_1" index="1" speed="13.89" length="33.45" width="3.66" shape="144274.70,29028.16 144243.25,29038.59"/>
        <lane id=":j_merge_end_17_0_2" index="2" speed="13.89" length="33.45" width="3.66" shape="144273.45,29024.72 144242.12,29035.11"/>
    </edge>
    <edge id=":j_merge_end_18_0" function="internal">
        <lane id=":j_merge_end_18_0_0" index="0" disallow="all" speed="13.89" length="42.80" width="3.66" shape="210317.44,37556.02 210305.09,37551.73 210297.70,37545.54 210290.29,37539.46 210277.89,37535.53"/>
        <lane id=":j_merge_end_18_0_1" index="1" speed="13.89" length="42.80" width="3.66" shape="210318.03,37552.41 210276.44,37546.41"/>
        <lane id=":j_merge_end_18_0_2" index="2" speed="13.89" length="42.80" width="3.66" shape="210318.62,37548.79 210276.92,37542.78"/>
        <lane id=":j_merge_end_18_0_3" index="3" speed="13.89" length="42.80" width="3.66" shape="210319.20,37545.18 210277.41,37539.15"/>
        <lane id=":j_merge_end_18_0_4" index="4" disallow="all" speed="13.89" length="42.80" width="3.66" shape="210319.79,37541.57 210277.89,37535.53"/>
    </edge>
    <edge id=":j_merge_end_19_0" function="internal">
        <lane id=":j_merge_end_19_0_0" index="0" disallow="all" speed="13.89" length="38.38" width="3.66" shape="213767.52,39174.93 213758.08,39167.91 213753.81,39160.21 213749.63,39152.34 213740.43,39144.85"/>
        <lane id=":j_merge_end_19_0_1" index="1" speed="13.89" length="38.38" width="3.66" shape="213769.08,39171.63 213735.27,39154.54"/>
        <lane id=":j_merge_end_19_0_2" index="2" speed="13.89" length="38.38" width="3.66" shape="213770.65,39168.32 213736.99,39151.31"/>
        <lane id=":j_merge_end_19_0_3" index="3" speed="13.89" length="38.38" width="3.66" shape="213772.22,39165.01 213738.71,39148.08"/>
        <lane id=":j_merge_end_19_0_4" index="4" disallow="all" speed="13.89" length="38.38" width="3.66" shape="213773.79,39161.71 213740.43,39144.85"/>
    </edge>
    <edge id=":j_merge_end_2_0" function="internal">
        <lane id=":j_merge_end_2_0_0" index="0" disallow="all" speed="13.89" length="38.29" width="3.66" shape="220623.08,39153.32 220611.19,39151.82 220603.56,39146.36 220595.93,39140.90 220584.04,39139.38"/>
        <lane id=":j_merge_end_2_0_1" index="1" speed="13.89" length="38.29" width="3.66" shape="220622.23,39146.05 220585.28,39150.29"/>
        <lane id=":j_merge_end_2_0_2" index="2" speed="13.89" length="38.29" width="3.66" shape="220621.81,39142.41 220584.87,39146.65"/>
        <lane id=":j_merge_end_2_0_3" index="3" speed="13.89" length="38.29" width="3.66" shape="220621.39,39138.78 220584.45,39143.02"/>
        <lane id=":j_merge_end_2_0_4" index="4" disallow="all" speed="13.89" length="38.29" width="3.66" shape="220620.97,39135.14 220584.04,39139.38"/>
    </edge>
    <edge id=":j_merge_end_21_0" function="internal">
        <lane id=":j_merge_end_21_0_0" index="0" disallow="all" speed="13.89" length="3.17" width="3.66" shape="237388.77,40183.98 237388.90,40169.34"/>
        <lane id=":j_merge_end_21_0_1" index="1" speed="13.89" length="3.17" width="3.66" shape="237388.88,40180.32 237388.58,40180.31"/>
        <lane id=":j_merge_end_21_0_2" index="2" speed="13.89" length="3.17" width="3.66" shape="237388.99,40176.66 237388.69,40176.65"/>
        <lane id=":j_merge_end_21_0_3" index="3" speed="13.89" length="3.17" width="3.66" shape="237389.10,40173.00 237388.80,40172.99"/>
        <lane id=":j_merge_end_21_0_4" index="4" disallow="all" speed="13.89" length="3.17" width="3.66" shape="237389.21,40169.35 237388.90,40169.34"/>
    </edge>
    <edge id=":j_merge_end_22_0" function="internal">
        <lane id=":j_merge_end_22_0_0" index="0" disallow="all" speed="13.89" length="9.75" width="3.66" shape="240167.71,40264.00 240164.59,40262.18 240163.84,40258.38 240163.09,40254.60 240159.98,40252.83"/>
        <lane id=":j_merge_end_22_0_1" index="1" speed="13.89" length="9.75" width="3.66" shape="240167.82,40260.34 240159.84,40260.14"/>
        <lane id=":j_merge_end_22_0_2" index="2" speed="13.89" length="9.75" width="3.66" shape="240167.93,40256.68 240159.91,40256.48"/>
        <lane id=":j_merge_end_22_0_3" index="3" disallow="all" speed="13.89" length="9.75" width="3.66" shape="240168.04,40253.03 240159.98,40252.83"/>
    </edge>
    <edge id=":j_merge_end_23_0" function="internal">
        <lane id=":j_merge_end_23_0_0" index="0" disallow="all" speed="13.89" length="3.17" width="3.66" shape="229815.93,40146.27 229816.01,40131.63"/>
        <lane id=":j_merge_end_23_0_1" index="1" speed="13.89" length="3.17" width="3.66" shape="229816.03,40142.61 229815.74,40142.60"/>
        <lane id=":j_merge_end_23_0_2" index="2" speed="13.89" length="3.17" width="3.66" shape="229816.13,40138.95 229815.83,40138.94"/>
        <lane id=":j_merge_end_23_0_3" index="3" speed="13.89" length="3.17" width="3.66" shape="229816.23,40135.29 229815.92,40135.29"/>
        <lane id=":j_merge_end_23_0_4" index="4" disallow="all" speed="13.89" length="3.17" width="3.66" shape="229816.33,40131.64 229816.01,40131.63"/>
    </edge>
    <edge id=":j_merge_end_25_0" function="internal">
        <lane id=":j_merge_end_25_0_0" index="0" speed="13.89" length="41.07" width="3.66" shape="129315.11,28301.80 129304.45,28301.53 129294.45,28299.92 129284.46,28298.42 129273.83,28298.46"/>
        <lane id=":j_merge_end_25_0_1" index="1" speed="13.89" length="41.07" width="3.66" shape="129314.83,28298.15 129274.25,28302.10"/>
        <lane id=":j_merge_end_25_0_2" index="2" speed="13.89" length="41.07" width="3.66" shape="129314.54,28294.51 129273.83,28298.46"/>
    </edge>
    <edge id=":j_merge_end_27_0" function="internal">
        <lane id=":j_merge_end_27_0_0" index="0" speed="13.89" length="46.06" width="3.66" shape="112343.94,28055.92 112332.57,28054.71 112321.04,28052.12 112309.52,28049.54 112298.14,28048.34"/>
        <lane id=":j_merge_end_27_0_1" index="1" speed="13.89" length="46.06" width="3.66" shape="112343.97,28052.26 112298.13,28052.00"/>
        <lane id=":j_merge_end_27_0_2" index="2" speed="13.89" length="46.06" width="3.66" shape="112343.99,28048.60 112298.14,28048.34"/>
    </edge>
    <edge id=":j_merge_end_34_0" function="internal">
        <lane id=":j_merge_end_34_0_0" index="0" speed="13.89" length="32.91" width="3.66" shape="61919.75,21942.97 61911.25,21939.03 61905.38,21934.49 61899.51,21929.95 61891.01,21926.00"/>
        <lane id=":j_merge_end_34_0_1" index="1" speed="13.89" length="32.91" width="3.66" shape="61920.88,21939.49 61889.88,21929.49"/>
        <lane id=":j_merge_end_34_0_2" index="2" speed="13.89" length="32.91" width="3.66" shape="61922.00,21936.00 61891.01,21926.00"/>
    </edge>
    <edge id=":j_merge_end_48_0" function="internal">
        <lane id=":j_merge_end_48_0_0" index="0" speed="13.89" length="34.72" width="3.66" shape="26000.36,10069.50 25991.81,10065.00 25985.60,10059.94 25979.38,10054.88 25970.83,10050.39"/>
        <lane id=":j_merge_end_48_0_1" index="1" speed="13.89" length="34.72" width="3.66" shape="26001.67,10066.08 25969.52,10053.81"/>
        <lane id=":j_merge_end_48_0_2" index="2" speed="13.89" length="34.72" width="3.66" shape="26002.98,10062.66 25970.83,10050.39"/>
    </edge>
    <edge id=":j_merge_end_5_0" function="internal">
        <lane id=":j_merge_end_5_0_0" index="0" disallow="all" speed="13.89" length="3.17" width="3.66" shape="207327.23,37740.22 207330.10,37725.86"/>
        <lane id=":j_merge_end_5_0_1" index="1" speed="13.89" length="3.17" width="3.66" shape="207328.02,37736.65 207327.73,37736.59"/>
        <lane id=":j_merge_end_5_0_2" index="2" speed="13.89" length="3.17" width="3.66" shape="207328.81,37733.08 207328.52,37733.01"/>
        <lane id=":j_merge_end_5_0_3" index="3" speed="13.89" length="3.17" width="3.66" shape="207329.61,37729.50 207329.31,37729.44"/>
        <lane id=":j_merge_end_5_0_4" index="4" disallow="all" speed="13.89" length="3.17" width="3.66" shape="207330.40,37725.93 207330.10,37725.86"/>
    </edge>
    <edge id=":j_merge_end_54_0" function="internal">
        <lane id=":j_merge_end_54_0_0" index="0" disallow="all" speed="13.89" length="48.02" width="3.66" shape="901.47,353.28 888.87,345.60 882.52,336.56 876.16,327.51 863.57,319.83"/>
        <lane id=":j_merge_end_54_0_1" index="1" speed="13.89" length="48.02" width="3.66" shape="904.00,346.41 859.77,330.13"/>
        <lane id=":j_merge_end_54_0_2" index="2" speed="13.89" length="48.02" width="3.66" shape="905.26,342.98 861.04,326.70"/>
        <lane id=":j_merge_end_54_0_3" index="3" speed="13.89" length="48.02" width="3.66" shape="906.52,339.54 862.30,323.26"/>
        <lane id=":j_merge_end_54_0_4" index="4" disallow="all" speed="13.89" length="48.02" width="3.66" shape="907.79,336.11 863.57,319.83"/>
    </edge>
    <edge id=":j_merge_end_55_0" function="internal">
        <lane id=":j_merge_end_55_0_0" index="0" disallow="all" speed="13.89" length="3.17" width="3.66" shape="233426.81,40154.83 233424.73,40140.34"/>
        <lane id=":j_merge_end_55_0_1" index="1" speed="13.89" length="3.17" width="3.66" shape="233426.37,40151.20 233426.07,40151.23"/>
        <lane id=":j_merge_end_55_0_2" index="2" speed="13.89" length="3.17" width="3.66" shape="233425.92,40147.57 233425.62,40147.60"/>
        <lane id=":j_merge_end_55_0_3" index="3" speed="13.89" length="3.17" width="3.66" shape="233425.48,40143.93 233425.18,40143.97"/>
        <lane id=":j_merge_end_55_0_4" index="4" disallow="all" speed="13.89" length="3.17" width="3.66" shape="233425.03,40140.30 233424.73,40140.34"/>
    </edge>
    <edge id=":j_merge_end_56_0" function="internal">
        <lane id=":j_merge_end_56_0_0" index="0" disallow="all" speed="13.89" length="37.49" width="3.66" shape="228937.56,40344.84 228926.61,40348.51 228917.95,40347.70 228909.31,40346.93 228898.44,40350.72"/>
        <lane id=":j_merge_end_56_0_1" index="1" speed="13.89" length="37.49" width="3.66" shape="228935.73,40341.67 228904.05,40360.16"/>
        <lane id=":j_merge_end_56_0_2" index="2" speed="13.89" length="37.49" width="3.66" shape="228933.90,40338.50 228902.18,40357.01"/>
        <lane id=":j_merge_end_56_0_3" index="3" speed="13.89" length="37.49" width="3.66" shape="228932.07,40335.34 228900.31,40353.87"/>
        <lane id=":j_merge_end_56_0_4" index="4" disallow="all" speed="13.89" length="37.49" width="3.66" shape="228930.24,40332.17 228898.44,40350.72"/>
    </edge>
    <edge id=":j_merge_end_57_0" function="internal">
        <lane id=":j_merge_end_57_0_0" index="0" disallow="all" speed="13.89" length="25.01" width="3.66" shape="187833.43,33362.98 187826.55,33359.47 187823.04,33354.68 187819.52,33349.90 187812.65,33346.36"/>
        <lane id=":j_merge_end_57_0_1" index="1" speed="13.89" length="25.01" width="3.66" shape="187834.33,33359.44 187810.83,33353.45"/>
        <lane id=":j_merge_end_57_0_2" index="2" speed="13.89" length="25.01" width="3.66" shape="187835.23,33355.89 187811.74,33349.91"/>
        <lane id=":j_merge_end_57_0_3" index="3" disallow="all" speed="13.89" length="25.01" width="3.66" shape="187836.14,33352.34 187812.65,33346.36"/>
    </edge>
    <edge id=":j_merge_end_60_0" function="internal">
        <lane id=":j_merge_end_60_0_0" index="0" speed="13.89" length="16.95" width="3.66" shape="17283.42,6613.81 17279.36,6610.14 17278.38,6605.58 17277.40,6601.03 17273.34,6597.38"/>
        <lane id=":j_merge_end_60_0_1" index="1" speed="13.89" length="16.95" width="3.66" shape="17284.90,6610.46 17270.40,6604.08"/>
        <lane id=":j_merge_end_60_0_2" index="2" speed="13.89" length="16.95" width="3.66" shape="17286.38,6607.11 17271.87,6600.73"/>
        <lane id=":j_merge_end_60_0_3" index="3" speed="13.89" length="16.95" width="3.66" shape="17287.86,6603.76 17273.34,6597.38"/>
    </edge>
    <edge id=":j_merge_end_61_0" function="internal">
        <lane id=":j_merge_end_61_0_0" index="0" speed="13.89" length="8.11" width="3.66" shape="185909.75,32879.42 185907.66,32877.70 185907.39,32875.03 185907.12,32872.36 185905.02,32870.64"/>
        <lane id=":j_merge_end_61_0_1" index="1" speed="13.89" length="8.11" width="3.66" shape="185910.67,32875.88 185904.11,32874.19"/>
        <lane id=":j_merge_end_61_0_2" index="2" speed="13.89" length="8.11" width="3.66" shape="185911.58,32872.33 185905.02,32870.64"/>
    </edge>
    <edge id=":j_merge_end_62_0" function="internal">
        <lane id=":j_merge_end_62_0_0" index="0" speed="13.89" length="32.11" width="3.66" shape="179484.42,31623.09 179475.61,31620.26 179469.50,31616.53 179463.39,31612.80 179454.59,31609.96"/>
        <lane id=":j_merge_end_62_0_1" index="1" speed="13.89" length="32.11" width="3.66" shape="179485.10,31619.50 179453.90,31613.55"/>
        <lane id=":j_merge_end_62_0_2" index="2" speed="13.89" length="32.11" width="3.66" shape="179485.78,31615.90 179454.59,31609.96"/>
    </edge>
    <edge id=":j_merge_start_1_0" function="internal">
        <lane id=":j_merge_start_1_0_0" index="0" speed="13.89" length="57.65" width="3.66" shape="216596.00,39547.65 216538.67,39541.58"/>
    </edge>
    <edge id=":j_merge_start_1_1" function="internal">
        <lane id=":j_merge_start_1_1_0" index="0" speed="13.89" length="57.49" width="3.66" shape="216596.52,39537.87 216539.13,39534.28"/>
        <lane id=":j_merge_start_1_1_1" index="1" speed="13.89" length="57.49" width="3.66" shape="216596.75,39534.21 216539.36,39530.62"/>
        <lane id=":j_merge_start_1_1_2" index="2" speed="13.89" length="57.49" width="3.66" shape="216596.97,39530.56 216539.59,39526.97"/>
        <lane id=":j_merge_start_1_1_3" index="3" disallow="all" speed="13.89" length="57.49" width="3.66" shape="216597.20,39526.91 216539.82,39523.32"/>
    </edge>
    <edge id=":j_merge_start_12_0" function="internal">
        <lane id=":j_merge_start_12_0_0" index="0" speed="13.89" length="78.31" width="3.66" shape="169369.87,29257.40 169291.59,29255.20"/>
    </edge>
    <edge id=":j_merge_start_12_1" function="internal">
        <lane id=":j_merge_start_12_1_0" index="0" speed="13.89" length="78.39" width="3.66" shape="169370.05,29253.67 169291.69,29251.54"/>
        <lane id=":j_merge_start_12_1_1" index="1" speed="13.89" length="78.39" width="3.66" shape="169370.15,29250.02 169291.79,29247.88"/>
    </edge>
    <edge id=":j_merge_start_13_0" function="internal">
        <lane id=":j_merge_start_13_0_0" index="0" speed="13.89" length="76.75" width="3.66" shape="167418.65,29202.23 167341.93,29200.38"/>
    </edge>
    <edge id=":j_merge_start_13_1" function="internal">
        <lane id=":j_merge_start_13_1_0" index="0" speed="13.89" length="76.68" width="3.66" shape="167418.70,29198.81 167342.04,29196.72"/>
        <lane id=":j_merge_start_13_1_1" index="1" speed="13.89" length="76.68" width="3.66" shape="167418.80,29195.15 167342.16,29193.06"/>
    </edge>
    <edge id=":j_merge_start_14_0" function="internal">
        <lane id=":j_merge_start_14_0_0" index="0" speed="13.89" length="65.30" width="3.66" shape="170969.58,29302.57 170904.31,29301.01"/>
    </edge>
    <edge id=":j_merge_start_14_1" function="internal">
        <lane id=":j_merge_start_14_1_0" index="0" speed="13.89" length="65.25" width="3.66" shape="170969.64,29299.22 170904.41,29297.35"/>
        <lane id=":j_merge_start_14_1_1" index="1" speed="13.89" length="65.25" width="3.66" shape="170969.74,29295.56 170904.52,29293.69"/>
    </edge>
    <edge id=":j_merge_start_17_0" function="internal">
        <lane id=":j_merge_start_17_0_0" index="0" speed="13.89" length="63.66" width="3.66" shape="144388.72,28986.90 144329.93,29011.34"/>
    </edge>
    <edge id=":j_merge_start_17_1" function="internal">
        <lane id=":j_merge_start_17_1_0" index="0" speed="13.89" length="63.62" width="3.66" shape="144387.39,28983.42 144328.62,29007.92"/>
        <lane id=":j_merge_start_17_1_1" index="1" speed="13.89" length="63.62" width="3.66" shape="144385.95,28980.05 144327.30,29004.51"/>
    </edge>
    <edge id=":j_merge_start_18_0" function="internal">
        <lane id=":j_merge_start_18_0_0" index="0" speed="13.89" length="50.02" width="3.66" shape="210512.00,37598.61 210463.73,37585.48"/>
    </edge>
    <edge id=":j_merge_start_18_1" function="internal">
        <lane id=":j_merge_start_18_1_0" index="0" speed="13.89" length="50.18" width="3.66" shape="210512.98,37594.63 210464.57,37581.92"/>
        <lane id=":j_merge_start_18_1_1" index="1" speed="13.89" length="50.18" width="3.66" shape="210513.90,37591.09 210465.41,37578.36"/>
        <lane id=":j_merge_start_18_1_2" index="2" speed="13.89" length="50.18" width="3.66" shape="210514.82,37587.54 210466.24,37574.80"/>
        <lane id=":j_merge_start_18_1_3" index="3" disallow="all" speed="13.89" length="50.18" width="3.66" shape="210515.74,37584.00 210467.08,37571.23"/>
    </edge>
    <edge id=":j_merge_start_19_0" function="internal">
        <lane id=":j_merge_start_19_0_0" index="0" speed="13.89" length="63.52" width="3.66" shape="214026.00,39270.11 213965.38,39251.15"/>
    </edge>
    <edge id=":j_merge_start_19_1" function="internal">
        <lane id=":j_merge_start_19_1_0" index="0" speed="13.89" length="63.41" width="3.66" shape="214027.02,39266.44 213966.45,39247.66"/>
        <lane id=":j_merge_start_19_1_1" index="1" speed="13.89" length="63.41" width="3.66" shape="214028.09,39262.94 213967.53,39244.16"/>
        <lane id=":j_merge_start_19_1_2" index="2" speed="13.89" length="63.41" width="3.66" shape="214029.17,39259.44 213968.61,39240.66"/>
        <lane id=":j_merge_start_19_1_3" index="3" disallow="all" speed="13.89" length="63.41" width="3.66" shape="214030.24,39255.94 213969.68,39237.16"/>
    </edge>
    <edge id=":j_merge_start_2_0" function="internal">
        <lane id=":j_merge_start_2_0_0" index="0" speed="13.89" length="53.47" width="3.66" shape="220785.30,39136.68 220732.00,39140.92"/>
    </edge>
    <edge id=":j_merge_start_2_1" function="internal">
        <lane id=":j_merge_start_2_1_0" index="0" speed="13.89" length="53.52" width="3.66" shape="220784.27,39127.60 220731.14,39133.65"/>
        <lane id=":j_merge_start_2_1_1" index="1" speed="13.89" length="53.52" width="3.66" shape="220783.87,39123.96 220730.71,39130.02"/>
        <lane id=":j_merge_start_2_1_2" index="2" speed="13.89" length="53.52" width="3.66" shape="220783.47,39120.32 220730.28,39126.38"/>
        <lane id=":j_merge_start_2_1_3" index="3" disallow="all" speed="13.89" length="53.52" width="3.66" shape="220783.08,39116.68 220729.85,39122.75"/>
    </edge>
    <edge id=":j_merge_start_21_0" function="internal">
        <lane id=":j_merge_start_21_0_0" index="0" speed="13.89" length="3.05" width="3.66" shape="237572.61,40189.36 237569.56,40189.39"/>
    </edge>
    <edge id=":j_merge_start_21_1" function="internal">
        <lane id=":j_merge_start_21_1_0" index="0" speed="13.89" length="3.00" width="3.66" shape="237572.67,40185.82 237569.67,40185.73"/>
        <lane id=":j_merge_start_21_1_1" index="1" speed="13.89" length="3.00" width="3.66" shape="237572.78,40182.16 237569.78,40182.07"/>
        <lane id=":j_merge_start_21_1_2" index="2" speed="13.89" length="3.00" width="3.66" shape="237572.89,40178.51 237569.89,40178.41"/>
        <lane id=":j_merge_start_21_1_3" index="3" disallow="all" speed="13.89" length="3.00" width="3.66" shape="237573.01,40174.85 237570.00,40174.76"/>
    </edge>
    <edge id=":j_merge_start_22_0" function="internal">
        <lane id=":j_merge_start_22_0_0" index="0" speed="13.89" length="4.59" width="3.66" shape="240486.61,40277.14 240483.54,40273.73"/>
    </edge>
    <edge id=":j_merge_start_22_1" function="internal">
        <lane id=":j_merge_start_22_1_0" index="0" speed="13.89" length="3.03" width="3.66" shape="240486.67,40269.73 240485.77,40269.77 240485.16,40269.90 240484.55,40270.03 240483.65,40270.07"/>
        <lane id=":j_merge_start_22_1_1" index="1" speed="13.89" length="3.03" width="3.66" shape="240486.75,40266.07 240485.86,40266.11 240485.26,40266.25 240484.65,40266.37 240483.76,40266.41"/>
    </edge>
    <edge id=":j_merge_start_23_0" function="internal">
        <lane id=":j_merge_start_23_0_0" index="0" speed="13.89" length="135.81" width="3.66" shape="230111.43,40155.66 229975.72,40150.59"/>
    </edge>
    <edge id=":j_merge_start_23_1" function="internal">
        <lane id=":j_merge_start_23_1_0" index="0" speed="13.89" length="135.85" width="3.66" shape="230111.49,40151.74 229975.81,40146.93"/>
        <lane id=":j_merge_start_23_1_1" index="1" speed="13.89" length="135.85" width="3.66" shape="230111.65,40148.08 229975.91,40143.27"/>
        <lane id=":j_merge_start_23_1_2" index="2" speed="13.89" length="135.85" width="3.66" shape="230111.81,40144.42 229976.01,40139.61"/>
        <lane id=":j_merge_start_23_1_3" index="3" disallow="all" speed="13.89" length="135.85" width="3.66" shape="230111.97,40140.77 229976.11,40135.95"/>
    </edge>
    <edge id=":j_merge_start_25_0" function="internal">
        <lane id=":j_merge_start_25_0_0" index="0" speed="13.89" length="61.74" width="3.66" shape="129447.08,28295.21 129385.38,28297.33"/>
    </edge>
    <edge id=":j_merge_start_25_1" function="internal">
        <lane id=":j_merge_start_25_1_0" index="0" speed="13.89" length="61.87" width="3.66" shape="129446.97,28291.87 129385.19,28293.67"/>
        <lane id=":j_merge_start_25_1_1" index="1" speed="13.89" length="61.87" width="3.66" shape="129446.92,28288.21 129385.00,28290.02"/>
    </edge>
    <edge id=":j_merge_start_27_0" function="internal">
        <lane id=":j_merge_start_27_0_0" index="0" speed="13.89" length="66.67" width="3.66" shape="112456.69,28056.33 112390.02,28056.17"/>
    </edge>
    <edge id=":j_merge_start_27_1" function="internal">
        <lane id=":j_merge_start_27_1_0" index="0" speed="13.89" length="66.72" width="3.66" shape="112456.75,28052.90 112390.04,28052.51"/>
        <lane id=":j_merge_start_27_1_1" index="1" speed="13.89" length="66.72" width="3.66" shape="112456.78,28049.24 112390.05,28048.85"/>
    </edge>
    <edge id=":j_merge_start_34_0" function="internal">
        <lane id=":j_merge_start_34_0_0" index="0" speed="13.89" length="62.09" width="3.66" shape="62070.16,21991.22 62011.00,21972.36"/>
    </edge>
    <edge id=":j_merge_start_34_1" function="internal">
        <lane id=":j_merge_start_34_1_0" index="0" speed="13.89" length="62.01" width="3.66" shape="62071.14,21987.89 62012.12,21968.88"/>
        <lane id=":j_merge_start_34_1_1" index="1" speed="13.89" length="62.01" width="3.66" shape="62072.26,21984.40 62013.24,21965.39"/>
    </edge>
    <edge id=":j_merge_start_48_0" function="internal">
        <lane id=":j_merge_start_48_0_0" index="0" speed="13.89" length="62.88" width="3.66" shape="26173.27,10136.15 26164.24,10132.32 26147.59,10125.83 26129.15,10118.77 26114.72,10113.24"/>
    </edge>
    <edge id=":j_merge_start_48_1" function="internal">
        <lane id=":j_merge_start_48_1_0" index="0" speed="13.89" length="61.40" width="3.66" shape="26173.38,10131.82 26116.04,10109.83"/>
        <lane id=":j_merge_start_48_1_1" index="1" speed="13.89" length="61.40" width="3.66" shape="26174.68,10128.40 26117.36,10106.42"/>
    </edge>
    <edge id=":j_merge_start_5_0" function="internal">
        <lane id=":j_merge_start_5_0_0" index="0" speed="13.89" length="109.19" width="3.66" shape="207542.25,37785.22 207435.03,37764.60"/>
    </edge>
    <edge id=":j_merge_start_5_1" function="internal">
        <lane id=":j_merge_start_5_1_0" index="0" speed="13.89" length="218.36" width="3.66" shape="207648.59,37810.25 207435.85,37761.03"/>
        <lane id=":j_merge_start_5_1_1" index="1" speed="13.89" length="218.36" width="3.66" shape="207649.42,37806.69 207436.68,37757.47"/>
        <lane id=":j_merge_start_5_1_2" index="2" speed="13.89" length="218.36" width="3.66" shape="207650.24,37803.12 207437.50,37753.90"/>
        <lane id=":j_merge_start_5_1_3" index="3" disallow="all" speed="13.89" length="218.36" width="3.66" shape="207651.07,37799.55 207438.33,37750.33"/>
    </edge>
    <edge id=":j_merge_start_54_0" function="internal">
        <lane id=":j_merge_start_54_0_0" index="0" speed="13.89" length="51.77" width="3.66" shape="1003.90,394.91 956.68,373.68"/>
    </edge>
    <edge id=":j_merge_start_54_1" function="internal">
        <lane id=":j_merge_start_54_1_0" index="0" speed="13.89" length="51.56" width="3.66" shape="1007.63,384.61 959.23,366.81"/>
        <lane id=":j_merge_start_54_1_1" index="1" speed="13.89" length="51.56" width="3.66" shape="1008.90,381.18 960.50,363.38"/>
        <lane id=":j_merge_start_54_1_2" index="2" speed="13.89" length="51.56" width="3.66" shape="1010.16,377.74 961.77,359.95"/>
        <lane id=":j_merge_start_54_1_3" index="3" disallow="all" speed="13.89" length="51.56" width="3.66" shape="1011.43,374.31 963.04,356.52"/>
    </edge>
    <edge id=":j_merge_start_55_0" function="internal">
        <lane id=":j_merge_start_55_0_0" index="0" speed="13.89" length="3.07" width="3.66" shape="233653.91,40126.50 233653.02,40126.68 233652.44,40126.91 233651.86,40127.16 233650.97,40127.34"/>
    </edge>
    <edge id=":j_merge_start_55_1" function="internal">
        <lane id=":j_merge_start_55_1_0" index="0" speed="13.89" length="3.00" width="3.66" shape="233653.50,40123.35 233650.53,40123.71"/>
        <lane id=":j_merge_start_55_1_1" index="1" speed="13.89" length="3.00" width="3.66" shape="233653.06,40119.71 233650.08,40120.08"/>