<?xml version='1.0' encoding='utf-8'?>
<connections>
    <connection from="21.0" to="merge_zone_1" fromLane="4" toLane="5" />
    <connection from="21.0" to="merge_zone_1" fromLane="1" toLane="2" />
    <connection from="21.0" to="merge_zone_1" fromLane="2" toLane="3" />
    <connection from="21.0" to="merge_zone_1" fromLane="3" toLane="4" />
    <connection from="merge_zone_1" to="8.0" fromLane="5" toLane="5" />
    <connection from="merge_zone_1" to="8.0" fromLane="2" toLane="2" />
    <connection from="merge_zone_1" to="8.0" fromLane="3" toLane="3" />
    <connection from="merge_zone_1" to="8.0" fromLane="4" toLane="4" />
    <connection from="25.0" to="merge_zone_1" fromLane="0" toLane="0" />
    <connection from="merge_zone_1" to="8.0" fromLane="0" toLane="5" dir="r" state="m" />
    <connection from="791.0" to="158.0" fromLane="2" toLane="2" />
    <connection from="791.0" to="158.0" fromLane="1" toLane="1" />
    <connection from="465.0" to="470.0" fromLane="1" toLane="1" />
    <connection from="465.0" to="470.0" fromLane="2" toLane="2" />
    <connection from="465.0" to="461.0" fromLane="0" toLane="0" />
    <connection from="516.0" to="504.0" fromLane="2" toLane="1" />
    <connection from="516.0" to="504.0" fromLane="1" toLane="0" />
    <connection from="516.0" to="513.0" fromLane="1" toLane="0" />
    <connection from="528.0" to="526.0" fromLane="1" toLane="1" />
    <connection from="528.0" to="526.0" fromLane="2" toLane="2" />
    <connection from="528.0" to="537.0" fromLane="0" toLane="0" />
    <connection from="551.0" to="550.0" fromLane="1" toLane="1" />
    <connection from="551.0" to="550.0" fromLane="2" toLane="2" />
    <connection from="551.0" to="535.0" fromLane="0" toLane="0" />
    <connection from="553.0" to="566.0" fromLane="1" toLane="1" />
    <connection from="553.0" to="566.0" fromLane="2" toLane="2" />
    <connection from="553.0" to="567.0" fromLane="0" toLane="0" />
    <connection from="563.0" to="571.0" fromLane="1" toLane="0" />
    <connection from="563.0" to="562.0" fromLane="1" toLane="0" />
    <connection from="563.0" to="562.0" fromLane="2" toLane="1" />
    <connection from="577.0" to="569.0" fromLane="0" toLane="0" />
    <connection from="577.0" to="569.0" fromLane="1" toLane="1" />
    <connection from="577.0" to="564.0" fromLane="1" toLane="0" />
    <connection from="577.0" to="564.0" fromLane="2" toLane="1" />
    <connection from="583.0" to="644.0" fromLane="1" toLane="0" />
    <connection from="583.0" to="640.0" fromLane="2" toLane="1" />
    <connection from="583.0" to="640.0" fromLane="1" toLane="0" />
    <connection from="606.0" to="603.0" fromLane="2" toLane="2" />
    <connection from="606.0" to="603.0" fromLane="1" toLane="1" />
    <connection from="606.0" to="617.0" fromLane="0" toLane="0" />
    <connection from="625.0" to="643.0" fromLane="1" toLane="0" />
    <connection from="625.0" to="626.0" fromLane="1" toLane="0" />
    <connection from="625.0" to="626.0" fromLane="2" toLane="1" />
    <connection from="161.0" to="165.0" fromLane="0" toLane="1" />
    <connection from="161.0" to="165.0" fromLane="1" toLane="2" />
    <connection from="638.0" to="645.0" fromLane="1" toLane="0" />
    <connection from="638.0" to="635.0" fromLane="2" toLane="1" />
    <connection from="638.0" to="635.0" fromLane="1" toLane="0" />
    <connection from="652.0" to="657.0" fromLane="0" toLane="0" />
    <connection from="652.0" to="661.0" fromLane="1" toLane="1" />
    <connection from="652.0" to="661.0" fromLane="0" toLane="0" />
    <connection from="672.0" to="675.0" fromLane="2" toLane="1" />
    <connection from="672.0" to="675.0" fromLane="1" toLane="0" />
    <connection from="672.0" to="671.0" fromLane="1" toLane="0" />
    <connection from="683.0" to="706.0" fromLane="0" toLane="0" />
    <connection from="683.0" to="703.0" fromLane="0" toLane="0" />
    <connection from="683.0" to="703.0" fromLane="1" toLane="1" />
    <connection from="708.0" to="712.0" fromLane="1" toLane="0" />
    <connection from="708.0" to="709.0" fromLane="1" toLane="0" />
    <connection from="708.0" to="709.0" fromLane="2" toLane="1" />
    <connection from="718.0" to="734.0" fromLane="0" toLane="0" />
    <connection from="718.0" to="729.0" fromLane="3" toLane="3" />
    <connection from="718.0" to="729.0" fromLane="2" toLane="2" />
    <connection from="718.0" to="729.0" fromLane="1" toLane="1" />
    <connection from="718.0" to="729.0" fromLane="4" toLane="4" />
    <connection from="721.0" to="722.0" fromLane="2" toLane="2" />
    <connection from="721.0" to="722.0" fromLane="1" toLane="1" />
    <connection from="721.0" to="722.0" fromLane="3" toLane="3" />
    <connection from="721.0" to="722.0" fromLane="4" toLane="4" />
    <connection from="766.0" to="510.0" fromLane="1" toLane="0" />
    <connection from="766.0" to="506.0" fromLane="2" toLane="1" />
    <connection from="766.0" to="506.0" fromLane="1" toLane="0" />
    <connection from="769.0" to="819.0" fromLane="1" toLane="0" />
    <connection from="769.0" to="819.0" fromLane="2" toLane="1" />
    <connection from="769.0" to="805.0" fromLane="1" toLane="0" />
    <connection from="771.0" to="785.0" fromLane="2" toLane="1" />
    <connection from="771.0" to="785.0" fromLane="1" toLane="0" />
    <connection from="771.0" to="785.0" fromLane="4" toLane="3" />
    <connection from="771.0" to="785.0" fromLane="3" toLane="2" />
    <connection from="771.0" to="788.0" fromLane="1" toLane="1" />
    <connection from="771.0" to="788.0" fromLane="0" toLane="0" />
    <connection from="181.0" to="merge_zone_12" fromLane="1" toLane="2" />
    <connection from="181.0" to="merge_zone_12" fromLane="0" toLane="1" />
    <connection from="merge_zone_12" to="174.0" fromLane="2" toLane="2" />
    <connection from="merge_zone_12" to="174.0" fromLane="1" toLane="1" />
    <connection from="172.0" to="merge_zone_12" fromLane="0" toLane="0" />
    <connection from="merge_zone_12" to="174.0" fromLane="0" toLane="2" dir="r" state="m" />
    <connection from="793.0" to="141.0" fromLane="1" toLane="1" />
    <connection from="793.0" to="141.0" fromLane="0" toLane="0" />
    <connection from="793.0" to="796.0" fromLane="0" toLane="0" />
    <connection from="806.0" to="131.0" fromLane="0" toLane="0" />
    <connection from="806.0" to="824.0" fromLane="0" toLane="0" />
    <connection from="806.0" to="824.0" fromLane="1" toLane="1" />
    <connection from="834.0" to="829.0" fromLane="1" toLane="0" />
    <connection from="834.0" to="829.0" fromLane="2" toLane="1" />
    <connection from="834.0" to="831.0" fromLane="0" toLane="0" />
    <connection from="850.0" to="853.0" fromLane="1" toLane="0" />
    <connection from="850.0" to="55.0" fromLane="2" toLane="1" />
    <connection from="850.0" to="55.0" fromLane="3" toLane="2" />
    <connection from="850.0" to="55.0" fromLane="1" toLane="0" />
    <connection from="850.0" to="55.0" fromLane="4" toLane="3" />
    <connection from="859.0" to="731.0" fromLane="1" toLane="0" />
    <connection from="859.0" to="856.0" fromLane="2" toLane="1" />
    <connection from="859.0" to="856.0" fromLane="3" toLane="2" />
    <connection from="859.0" to="856.0" fromLane="4" toLane="3" />
    <connection from="859.0" to="856.0" fromLane="1" toLane="0" />
    <connection from="876.0" to="875.0" fromLane="2" toLane="2" />
    <connection from="876.0" to="875.0" fromLane="0" toLane="0" />
    <connection from="876.0" to="875.0" fromLane="1" toLane="1" />
    <connection from="876.0" to="879.0" fromLane="0" toLane="0" />
    <connection from="888.0" to="883.0" fromLane="0" toLane="0" />
    <connection from="888.0" to="883.0" fromLane="1" toLane="1" />
    <connection from="888.0" to="883.0" fromLane="2" toLane="2" />
    <connection from="888.0" to="886.0" fromLane="0" toLane="0" />
    <connection from="907.0" to="909.0" fromLane="0" toLane="0" />
    <connection from="907.0" to="793.0" fromLane="1" toLane="0" />
    <connection from="907.0" to="793.0" fromLane="2" toLane="1" />
    <connection from="189.0" to="merge_zone_13" fromLane="0" toLane="0" />
    <connection from="merge_zone_13" to="183.0" fromLane="0" toLane="2" dir="r" state="m" />
    <connection from="191.0" to="merge_zone_13" fromLane="0" toLane="1" />
    <connection from="191.0" to="merge_zone_13" fromLane="1" toLane="2" />
    <connection from="merge_zone_13" to="183.0" fromLane="1" toLane="1" />
    <connection from="merge_zone_13" to="183.0" fromLane="2" toLane="2" />
    <connection from="185.0" to="merge_zone_14" fromLane="0" toLane="0" />
    <connection from="merge_zone_14" to="193.0" fromLane="0" toLane="1" dir="r" state="m" />
    <connection from="184.0" to="merge_zone_14" fromLane="1" toLane="2" />
    <connection from="184.0" to="merge_zone_14" fromLane="0" toLane="1" />
    <connection from="merge_zone_14" to="193.0" fromLane="2" toLane="1" />
    <connection from="merge_zone_14" to="193.0" fromLane="1" toLane="0" />
    <connection from="202.0" to="201.0" fromLane="0" toLane="1" />
    <connection from="202.0" to="201.0" fromLane="1" toLane="2" />
    <connection from="215.0" to="213.0" fromLane="0" toLane="1" />
    <connection from="215.0" to="213.0" fromLane="1" toLane="2" />
    <connection from="229.0" to="merge_zone_17" fromLane="1" toLane="2" />
    <connection from="229.0" to="merge_zone_17" fromLane="0" toLane="1" />
    <connection from="merge_zone_17" to="228.0" fromLane="2" toLane="2" />
    <connection from="merge_zone_17" to="228.0" fromLane="1" toLane="1" />
    <connection from="230.0" to="merge_zone_17" fromLane="0" toLane="0" />
    <connection from="merge_zone_17" to="228.0" fromLane="0" toLane="2" dir="r" state="m" />
    <connection from="70.0" to="merge_zone_18" fromLane="0" toLane="0" />
    <connection from="merge_zone_18" to="232.0" fromLane="0" toLane="4" dir="r" state="m" />
    <connection from="76.0" to="merge_zone_18" fromLane="1" toLane="2" />
    <connection from="76.0" to="merge_zone_18" fromLane="2" toLane="3" />
    <connection from="76.0" to="merge_zone_18" fromLane="0" toLane="1" />
    <connection from="76.0" to="merge_zone_18" fromLane="3" toLane="4" />
    <connection from="merge_zone_18" to="232.0" fromLane="2" toLane="2" />
    <connection from="merge_zone_18" to="232.0" fromLane="3" toLane="3" />
    <connection from="merge_zone_18" to="232.0" fromLane="1" toLane="1" />
    <connection from="merge_zone_18" to="232.0" fromLane="4" toLane="4" />
    <connection from="34.0" to="merge_zone_19" fromLane="2" toLane="3" />
    <connection from="34.0" to="merge_zone_19" fromLane="0" toLane="1" />
    <connection from="34.0" to="merge_zone_19" fromLane="3" toLane="4" />
    <connection from="34.0" to="merge_zone_19" fromLane="1" toLane="2" />
    <connection from="merge_zone_19" to="241.0" fromLane="3" toLane="3" />
    <connection from="merge_zone_19" to="241.0" fromLane="1" toLane="1" />
    <connection from="merge_zone_19" to="241.0" fromLane="4" toLane="4" />
    <connection from="merge_zone_19" to="241.0" fromLane="2" toLane="2" />
    <connection from="42.0" to="merge_zone_19" fromLane="0" toLane="0" />
    <connection from="merge_zone_19" to="241.0" fromLane="0" toLane="4" dir="r" state="m" />
    <connection from="319.0" to="merge_zone_2" fromLane="0" toLane="0" />
    <connection from="merge_zone_2" to="12.0" fromLane="0" toLane="4" dir="r" state="m" />
    <connection from="2.0" to="merge_zone_2" fromLane="2" toLane="3" />
    <connection from="2.0" to="merge_zone_2" fromLane="4" toLane="5" />
    <connection from="2.0" to="merge_zone_2" fromLane="1" toLane="2" />
    <connection from="2.0" to="merge_zone_2" fromLane="3" toLane="4" />
    <connection from="merge_zone_2" to="12.0" fromLane="3" toLane="2" />
    <connection from="merge_zone_2" to="12.0" fromLane="5" toLane="4" />
    <connection from="merge_zone_2" to="12.0" fromLane="2" toLane="1" />
    <connection from="merge_zone_2" to="12.0" fromLane="4" toLane="3" />
    <connection from="306.0" to="259.0" fromLane="1" toLane="2" />
    <connection from="306.0" to="259.0" fromLane="3" toLane="4" />
    <connection from="306.0" to="259.0" fromLane="4" toLane="5" />
    <connection from="306.0" to="259.0" fromLane="2" toLane="3" />
    <connection from="316.0" to="merge_zone_21" fromLane="2" toLane="3" />
    <connection from="316.0" to="merge_zone_21" fromLane="1" toLane="2" />
    <connection from="316.0" to="merge_zone_21" fromLane="0" toLane="1" />
    <connection from="316.0" to="merge_zone_21" fromLane="3" toLane="4" />
    <connection from="merge_zone_21" to="266.0" fromLane="3" toLane="3" />
    <connection from="merge_zone_21" to="266.0" fromLane="2" toLane="2" />
    <connection from="merge_zone_21" to="266.0" fromLane="1" toLane="1" />
    <connection from="merge_zone_21" to="266.0" fromLane="4" toLane="4" />
    <connection from="283.0" to="merge_zone_21" fromLane="0" toLane="0" />
    <connection from="merge_zone_21" to="266.0" fromLane="0" toLane="4" dir="r" state="m" />
    <connection from="287.0" to="merge_zone_22" fromLane="0" toLane="0" />
    <connection from="merge_zone_22" to="269.0" fromLane="0" toLane="4" dir="r" state="m" />
    <connection from="271.0" to="merge_zone_22" fromLane="1" toLane="1" />
    <connection from="271.0" to="merge_zone_22" fromLane="2" toLane="2" />
    <connection from="merge_zone_22" to="269.0" fromLane="3" toLane="4" />
    <connection from="merge_zone_22" to="269.0" fromLane="1" toLane="2" />
    <connection from="merge_zone_22" to="269.0" fromLane="2" toLane="3" />
    <connection from="297.0" to="merge_zone_23" fromLane="0" toLane="0" />
    <connection from="merge_zone_23" to="308.0" fromLane="0" toLane="4" dir="r" state="m" />
    <connection from="291.0" to="merge_zone_23" fromLane="0" toLane="1" />
    <connection from="291.0" to="merge_zone_23" fromLane="3" toLane="4" />
    <connection from="291.0" to="merge_zone_23" fromLane="2" toLane="3" />
    <connection from="291.0" to="merge_zone_23" fromLane="1" toLane="2" />
    <connection from="merge_zone_23" to="308.0" fromLane="1" toLane="1" />
    <connection from="merge_zone_23" to="308.0" fromLane="4" toLane="4" />
    <connection from="merge_zone_23" to="308.0" fromLane="3" toLane="3" />
    <connection from="merge_zone_23" to="308.0" fromLane="2" toLane="2" />
    <connection from="323.0" to="324.0" fromLane="2" toLane="2" />
    <connection from="323.0" to="324.0" fromLane="1" toLane="1" />
    <connection from="338.0" to="merge_zone_25" fromLane="0" toLane="0" />
    <connection from="merge_zone_25" to="337.0" fromLane="0" toLane="2" dir="r" state="m" />
    <connection from="336.0" to="merge_zone_25" fromLane="1" toLane="2" />
    <connection from="336.0" to="merge_zone_25" fromLane="0" toLane="1" />
    <connection from="merge_zone_25" to="337.0" fromLane="2" toLane="2" />
    <connection from="merge_zone_25" to="337.0" fromLane="1" toLane="1" />
    <connection from="344.0" to="343.0" fromLane="1" toLane="1" />
    <connection from="344.0" to="343.0" fromLane="2" toLane="2" />
    <connection from="360.0" to="merge_zone_27" fromLane="0" toLane="0" />
    <connection from="merge_zone_27" to="355.0" fromLane="0" toLane="2" dir="r" state="m" />
    <connection from="353.0" to="merge_zone_27" fromLane="0" toLane="1" />
    <connection from="353.0" to="merge_zone_27" fromLane="1" toLane="2" />
    <connection from="merge_zone_27" to="355.0" fromLane="1" toLane="1" />
    <connection from="merge_zone_27" to="355.0" fromLane="2" toLane="2" />
    <connection from="363.0" to="369.0" fromLane="2" toLane="2" />
    <connection from="363.0" to="369.0" fromLane="1" toLane="1" />
    <connection from="379.0" to="375.0" fromLane="2" toLane="2" />
    <connection from="379.0" to="375.0" fromLane="1" toLane="1" />
    <connection from="9.0" to="13.0" fromLane="4" toLane="4" />
    <connection from="9.0" to="13.0" fromLane="2" toLane="2" />
    <connection from="9.0" to="13.0" fromLane="1" toLane="1" />
    <connection from="9.0" to="13.0" fromLane="3" toLane="3" />
    <connection from="390.0" to="392.0" fromLane="1" toLane="1" />
    <connection from="390.0" to="392.0" fromLane="2" toLane="2" />
    <connection from="399.0" to="403.0" fromLane="2" toLane="2" />
    <connection from="399.0" to="403.0" fromLane="1" toLane="1" />
    <connection from="413.0" to="408.0" fromLane="0" toLane="1" />
    <connection from="413.0" to="408.0" fromLane="1" toLane="2" />
    <connection from="419.0" to="421.0" fromLane="1" toLane="1" />
    <connection from="419.0" to="421.0" fromLane="2" toLane="2" />
    <connection from="433.0" to="merge_zone_34" fromLane="1" toLane="2" />
    <connection from="433.0" to="merge_zone_34" fromLane="0" toLane="1" />
    <connection from="merge_zone_34" to="434.0" fromLane="2" toLane="2" />
    <connection from="merge_zone_34" to="434.0" fromLane="1" toLane="1" />
    <connection from="439.0" to="merge_zone_34" fromLane="0" toLane="0" />
    <connection from="merge_zone_34" to="434.0" fromLane="0" toLane="2" dir="r" state="m" />
    <connection from="450.0" to="445.0" fromLane="1" toLane="1" />
    <connection from="450.0" to="445.0" fromLane="2" toLane="2" />
    <connection from="446.0" to="451.0" fromLane="1" toLane="1" />
    <connection from="446.0" to="451.0" fromLane="2" toLane="2" />
    <connection from="470.0" to="473.0" fromLane="1" toLane="1" />
    <connection from="470.0" to="473.0" fromLane="2" toLane="2" />
    <connection from="512.0" to="505.0" fromLane="2" toLane="2" />
    <connection from="512.0" to="505.0" fromLane="1" toLane="1" />
    <connection from="507.0" to="508.0" fromLane="1" toLane="3" />
    <connection from="507.0" to="508.0" fromLane="2" toLane="4" />
    <connection from="40.0" to="33.0" fromLane="4" toLane="5" />
    <connection from="40.0" to="33.0" fromLane="1" toLane="2" />
    <connection from="40.0" to="33.0" fromLane="2" toLane="3" />
    <connection from="40.0" to="33.0" fromLane="3" toLane="4" />
    <connection from="550.0" to="534.0" fromLane="2" toLane="2" />
    <connection from="550.0" to="534.0" fromLane="1" toLane="1" />
    <connection from="526.0" to="553.0" fromLane="1" toLane="1" />
    <connection from="526.0" to="553.0" fromLane="2" toLane="2" />
    <connection from="573.0" to="559.0" fromLane="2" toLane="2" />
    <connection from="573.0" to="559.0" fromLane="1" toLane="1" />
    <connection from="603.0" to="585.0" fromLane="1" toLane="1" />
    <connection from="603.0" to="585.0" fromLane="2" toLane="2" />
    <connection from="597.0" to="587.0" fromLane="1" toLane="1" />
    <connection from="597.0" to="587.0" fromLane="2" toLane="2" />
    <connection from="599.0" to="596.0" fromLane="1" toLane="1" />
    <connection from="599.0" to="596.0" fromLane="2" toLane="2" />
    <connection from="609.0" to="601.0" fromLane="1" toLane="2" />
    <connection from="609.0" to="601.0" fromLane="0" toLane="1" />
    <connection from="632.0" to="629.0" fromLane="1" toLane="1" />
    <connection from="632.0" to="629.0" fromLane="2" toLane="2" />
    <connection from="642.0" to="merge_zone_48" fromLane="0" toLane="0" />
    <connection from="merge_zone_48" to="638.0" fromLane="0" toLane="2" dir="r" state="m" />
    <connection from="641.0" to="merge_zone_48" fromLane="0" toLane="1" />
    <connection from="641.0" to="merge_zone_48" fromLane="1" toLane="2" />
    <connection from="merge_zone_48" to="638.0" fromLane="1" toLane="1" />
    <connection from="merge_zone_48" to="638.0" fromLane="2" toLane="2" />
    <connection from="633.0" to="655.0" fromLane="2" toLane="2" />
    <connection from="633.0" to="655.0" fromLane="1" toLane="1" />
    <connection from="849.0" to="merge_zone_5" fromLane="0" toLane="0" />
    <connection from="merge_zone_5" to="57.0" fromLane="0" toLane="4" dir="r" state="m" />
    <connection from="846.0" to="merge_zone_5" fromLane="1" toLane="2" />
    <connection from="846.0" to="merge_zone_5" fromLane="3" toLane="4" />
    <connection from="846.0" to="merge_zone_5" fromLane="2" toLane="3" />
    <connection from="846.0" to="merge_zone_5" fromLane="0" toLane="1" />
    <connection from="merge_zone_5" to="57.0" fromLane="2" toLane="2" />
    <connection from="merge_zone_5" to="57.0" fromLane="4" toLane="4" />
    <connection from="merge_zone_5" to="57.0" fromLane="3" toLane="3" />
    <connection from="merge_zone_5" to="57.0" fromLane="1" toLane="1" />
    <connection from="694.0" to="678.0" fromLane="2" toLane="3" />
    <connection from="694.0" to="678.0" fromLane="1" toLane="2" />
    <connection from="664.0" to="688.0" fromLane="2" toLane="3" />
    <connection from="664.0" to="688.0" fromLane="1" toLane="2" />
    <connection from="747.0" to="merge_zone_54" fromLane="3" toLane="4" />
    <connection from="747.0" to="merge_zone_54" fromLane="1" toLane="2" />
    <connection from="747.0" to="merge_zone_54" fromLane="2" toLane="3" />
    <connection from="747.0" to="merge_zone_54" fromLane="4" toLane="5" />
    <connection from="merge_zone_54" to="740.0" fromLane="4" toLane="4" />
    <connection from="merge_zone_54" to="740.0" fromLane="2" toLane="2" />
    <connection from="merge_zone_54" to="740.0" fromLane="3" toLane="3" />
    <connection from="merge_zone_54" to="740.0" fromLane="5" toLane="5" />
    <connection from="749.0" to="merge_zone_54" fromLane="0" toLane="0" />
    <connection from="merge_zone_54" to="740.0" fromLane="0" toLane="5" dir="r" state="m" />
    <connection from="278.0" to="merge_zone_55" fromLane="0" toLane="0" />
    <connection from="merge_zone_55" to="797.0" fromLane="0" toLane="4" dir="r" state="m" />
    <connection from="311.0" to="merge_zone_55" fromLane="0" toLane="1" />
    <connection from="311.0" to="merge_zone_55" fromLane="2" toLane="3" />
    <connection from="311.0" to="merge_zone_55" fromLane="1" toLane="2" />
    <connection from="311.0" to="merge_zone_55" fromLane="3" toLane="4" />
    <connection from="merge_zone_55" to="797.0" fromLane="1" toLane="1" />
    <connection from="merge_zone_55" to="797.0" fromLane="3" toLane="3" />
    <connection from="merge_zone_55" to="797.0" fromLane="2" toLane="2" />
    <connection from="merge_zone_55" to="797.0" fromLane="4" toLane="4" />
    <connection from="290.0" to="merge_zone_56" fromLane="0" toLane="0" />
    <connection from="merge_zone_56" to="799.0" fromLane="0" toLane="4" dir="r" state="m" />
    <connection from="309.0" to="merge_zone_56" fromLane="1" toLane="2" />
    <connection from="309.0" to="merge_zone_56" fromLane="0" toLane="1" />
    <connection from="309.0" to="merge_zone_56" fromLane="3" toLane="4" />
    <connection from="309.0" to="merge_zone_56" fromLane="2" toLane="3" />
    <connection from="merge_zone_56" to="799.0" fromLane="2" toLane="2" />
    <connection from="merge_zone_56" to="799.0" fromLane="1" toLane="1" />
    <connection from="merge_zone_56" to="799.0" fromLane="4" toLane="4" />
    <connection from="merge_zone_56" to="799.0" fromLane="3" toLane="3" />
    <connection from="841.0" to="merge_zone_57" fromLane="2" toLane="3" />
    <connection from="841.0" to="merge_zone_57" fromLane="0" toLane="1" />
    <connection from="841.0" to="merge_zone_57" fromLane="1" toLane="2" />
    <connection from="merge_zone_57" to="840.0" fromLane="3" toLane="2" />
    <connection from="merge_zone_57" to="840.0" fromLane="1" toLane="0" />
    <connection from="merge_zone_57" to="840.0" fromLane="2" toLane="1" />
    <connection from="845.0" to="merge_zone_57" fromLane="0" toLane="0" />
    <connection from="merge_zone_57" to="840.0" fromLane="0" toLane="2" dir="r" state="m" />
    <connection from="717.0" to="863.0" fromLane="3" toLane="4" />
    <connection from="717.0" to="863.0" fromLane="0" toLane="1" />
    <connection from="717.0" to="863.0" fromLane="1" toLane="2" />
    <connection from="717.0" to="863.0" fromLane="2" toLane="3" />
    <connection from="865.0" to="873.0" fromLane="2" toLane="3" />
    <connection from="865.0" to="873.0" fromLane="1" toLane="2" />
    <connection from="865.0" to="873.0" fromLane="0" toLane="1" />
    <connection from="100.0" to="103.0" fromLane="3" toLane="4" />
    <connection from="100.0" to="103.0" fromLane="4" toLane="5" />
    <connection from="100.0" to="103.0" fromLane="0" toLane="1" />
    <connection from="100.0" to="103.0" fromLane="2" toLane="3" />
    <connection from="100.0" to="103.0" fromLane="1" toLane="2" />
    <connection from="889.0" to="merge_zone_60" fromLane="0" toLane="1" />
    <connection from="889.0" to="merge_zone_60" fromLane="2" toLane="3" />
    <connection from="889.0" to="merge_zone_60" fromLane="1" toLane="2" />
    <connection from="merge_zone_60" to="888.0" fromLane="1" toLane="0" />
    <connection from="merge_zone_60" to="888.0" fromLane="3" toLane="2" />
    <connection from="merge_zone_60" to="888.0" fromLane="2" toLane="1" />
    <connection from="892.0" to="merge_zone_60" fromLane="0" toLane="0" />
    <connection from="merge_zone_60" to="888.0" fromLane="0" toLane="2" dir="r" state="m" />
    <connection from="235.0" to="merge_zone_61" fromLane="0" toLane="1" />
    <connection from="235.0" to="merge_zone_61" fromLane="1" toLane="2" />
    <connection from="merge_zone_61" to="904.0" fromLane="1" toLane="1" />
    <connection from="merge_zone_61" to="904.0" fromLane="2" toLane="2" />
    <connection from="813.0" to="merge_zone_61" fromLane="0" toLane="0" />
    <connection from="merge_zone_61" to="904.0" fromLane="0" toLane="2" dir="r" state="m" />
    <connection from="911.0" to="merge_zone_62" fromLane="0" toLane="0" />
    <connection from="merge_zone_62" to="907.0" fromLane="0" toLane="2" dir="r" state="m" />
    <connection from="829.0" to="merge_zone_62" fromLane="1" toLane="2" />
    <connection from="829.0" to="merge_zone_62" fromLane="0" toLane="1" />
    <connection from="merge_zone_62" to="907.0" fromLane="2" toLane="2" />
    <connection from="merge_zone_62" to="907.0" fromLane="1" toLane="1" />
    <connection from="3.0" to="18.0" fromLane="0" toLane="0" />
    <connection from="3.0" to="21.0" fromLane="3" toLane="3" />
    <connection from="3.0" to="21.0" fromLane="1" toLane="1" />
    <connection from="3.0" to="21.0" fromLane="4" toLane="4" />
    <connection from="3.0" to="21.0" fromLane="2" toLane="2" />
    <connection from="7.0" to="24.0" fromLane="0" toLane="0" />
    <connection from="7.0" to="9.0" fromLane="3" toLane="3" />
    <connection from="7.0" to="9.0" fromLane="2" toLane="2" />
    <connection from="7.0" to="9.0" fromLane="4" toLane="4" />
    <connection from="7.0" to="9.0" fromLane="1" toLane="1" />
    <connection from="28.0" to="45.0" fromLane="4" toLane="3" />
    <connection from="28.0" to="45.0" fromLane="2" toLane="1" />
    <connection from="28.0" to="45.0" fromLane="3" toLane="2" />
    <connection from="28.0" to="45.0" fromLane="5" toLane="4" />
    <connection from="28.0" to="41.0" fromLane="1" toLane="0" />
    <connection from="63.0" to="77.0" fromLane="1" toLane="0" />
    <connection from="63.0" to="68.0" fromLane="2" toLane="1" />
    <connection from="63.0" to="68.0" fromLane="1" toLane="0" />
    <connection from="63.0" to="68.0" fromLane="4" toLane="3" />
    <connection from="63.0" to="68.0" fromLane="3" toLane="2" />
    <connection from="112.0" to="99.0" fromLane="2" toLane="2" />
    <connection from="112.0" to="99.0" fromLane="1" toLane="1" />
    <connection from="112.0" to="99.0" fromLane="4" toLane="4" />
    <connection from="112.0" to="99.0" fromLane="3" toLane="3" />
    <connection from="112.0" to="114.0" fromLane="0" toLane="0" />
    <connection from="147.0" to="899.0" fromLane="1" toLane="0" />
    <connection from="147.0" to="895.0" fromLane="1" toLane="0" />
    <connection from="167.0" to="147.0" fromLane="1" toLane="1" />
    <connection from="167.0" to="147.0" fromLane="0" toLane="0" />
    <connection from="167.0" to="157.0" fromLane="3" toLane="1" />
    <connection from="167.0" to="157.0" fromLane="2" toLane="0" />
    <connection from="171.0" to="179.0" fromLane="1" toLane="1" />
    <connection from="171.0" to="179.0" fromLane="0" toLane="0" />
    <connection from="171.0" to="195.0" fromLane="2" toLane="1" />
    <connection from="171.0" to="195.0" fromLane="3" toLane="2" />
    <connection from="178.0" to="182.0" fromLane="2" toLane="2" />
    <connection from="178.0" to="182.0" fromLane="1" toLane="1" />
    <connection from="178.0" to="197.0" fromLane="0" toLane="0" />
    <connection from="183.0" to="203.0" fromLane="1" toLane="0" />
    <connection from="183.0" to="204.0" fromLane="2" toLane="1" />
    <connection from="183.0" to="204.0" fromLane="1" toLane="0" />
    <connection from="192.0" to="177.0" fromLane="2" toLane="2" />
    <connection from="192.0" to="177.0" fromLane="1" toLane="1" />
    <connection from="192.0" to="180.0" fromLane="0" toLane="0" />
    <connection from="201.0" to="212.0" fromLane="2" toLane="1" />
    <connection from="201.0" to="212.0" fromLane="1" toLane="0" />
    <connection from="201.0" to="220.0" fromLane="1" toLane="0" />
    <connection from="223.0" to="225.0" fromLane="0" toLane="0" />
    <connection from="223.0" to="222.0" fromLane="1" toLane="1" />
    <connection from="223.0" to="222.0" fromLane="2" toLane="2" />
    <connection from="96.0" to="109.0" fromLane="3" toLane="4" />
    <connection from="96.0" to="109.0" fromLane="4" toLane="5" />
    <connection from="96.0" to="109.0" fromLane="0" toLane="1" />
    <connection from="96.0" to="109.0" fromLane="2" toLane="3" />
    <connection from="96.0" to="109.0" fromLane="1" toLane="2" />
    <connection from="257.0" to="305.0" fromLane="3" toLane="2" />
    <connection from="257.0" to="305.0" fromLane="2" toLane="1" />
    <connection from="257.0" to="305.0" fromLane="4" toLane="3" />
    <connection from="257.0" to="305.0" fromLane="5" toLane="4" />
    <connection from="266.0" to="314.0" fromLane="2" toLane="1" />
    <connection from="266.0" to="314.0" fromLane="1" toLane="0" />