<?xml version='1.0' encoding='utf-8'?>
<edges>
    <edge id="0.0" from="node_0_start" to="node_0_end" numLanes="5" speed="13.89" type="town" shape="782137.24,3297340.28 782128.36,3297341.67 782128.36,3297341.67 782103.35,3297345.85 782103.35,3297345.85 782075.76,3297350.34 782075.76,3297350.34 782054.89,3297353.66 782054.89,3297353.66 782036.04,3297356.60 782036.04,3297356.60 782017.96,3297359.52 782017.96,3297359.52 781993.39,3297363.09 781993.39,3297363.09 781976.45,3297365.60 781976.45,3297365.60 781956.67,3297368.56 781956.67,3297368.56 781938.76,3297371.07 781938.76,3297371.07 781914.97,3297374.39 781914.97,3297374.39 781897.85,3297376.79 781897.85,3297376.79 781879.25,3297379.21 781879.25,3297379.21 781862.06,3297381.46 781862.06,3297381.46 781844.15,3297383.74 781844.15,3297383.74 781825.59,3297386.08 781825.59,3297386.08 781800.08,3297389.14 781800.08,3297389.14 781774.16,3297392.14 781774.16,3297392.14 781759.04,3297393.89">
        <lane index="0" width="3.66" />
        <lane index="1" width="3.66" />
        <lane index="2" width="3.66" />
        <lane index="3" width="3.66" />
        <lane index="4" width="3.66" type="shoulder" disallow="all" />
    </edge>
    <edge id="100.0" from="node_100_start" to="junction_6" numLanes="5" speed="13.89" type="town" shape="763206.28,3294354.40 763202.27,3294353.76 763202.27,3294353.76 763188.33,3294351.52 763188.33,3294351.52 763174.22,3294349.26 763174.22,3294349.26 763160.59,3294347.10 763160.59,3294347.10 763147.01,3294344.91 763147.01,3294344.91 763136.57,3294343.23 763136.57,3294343.23 763121.33,3294340.78 763121.33,3294340.78 763110.74,3294339.07 763110.74,3294339.07 763102.76,3294337.80 763102.76,3294337.80 763091.80,3294336.03 763091.80,3294336.03 763080.87,3294334.28 763080.87,3294334.28 763069.54,3294332.49 763069.54,3294332.49 763061.14,3294331.12 763061.14,3294331.12 763051.74,3294329.63">
        <lane index="0" width="3.66" type="shoulder" disallow="all" />
        <lane index="1" width="3.66" />
        <lane index="2" width="3.66" />
        <lane index="3" width="3.66" />
        <lane index="4" width="3.66" type="shoulder" disallow="all" />
    </edge>
    <edge id="101.0" from="node_101_start" to="node_101_end" numLanes="5" speed="13.89" type="town" shape="767705.20,3295075.35 767704.14,3295075.18 767704.14,3295075.18 767697.76,3295074.14 767697.76,3295074.14 767691.65,3295073.17 767691.65,3295073.17 767688.09,3295072.57 767688.09,3295072.57 767682.17,3295071.64 767682.17,3295071.64 767676.16,3295070.67 767676.16,3295070.67 767669.60,3295069.62 767669.60,3295069.62 767664.46,3295068.79">
        <lane index="0" width="3.66" type="shoulder" disallow="all" />
        <lane index="1" width="3.66" />
        <lane index="2" width="3.66" />
        <lane index="3" width="3.66" />
        <lane index="4" width="3.66" type="shoulder" disallow="all" />
    </edge>
    <edge id="103.0" from="junction_6" to="node_103_end" numLanes="6" speed="13.89" type="town" shape="762989.24,3294319.61 762986.70,3294319.20 762986.70,3294319.20 762976.72,3294317.60">
        <lane index="0" width="3.66" />
        <lane index="1" width="3.66" type="shoulder" disallow="all" />
        <lane index="2" width="3.66" />
        <lane index="3" width="3.66" />
        <lane index="4" width="3.66" />
        <lane index="5" width="3.66" type="shoulder" disallow="all" />
    </edge>
    <edge id="104.0" from="node_104_start" to="node_104_end" numLanes="5" speed="13.89" type="town" shape="765559.33,3294731.48 765554.70,3294730.73 765554.70,3294730.73 765551.15,3294730.16">
        <lane index="0" width="3.66" type="shoulder" disallow="all" />
        <lane index="1" width="3.66" />
        <lane index="2" width="3.66" />
        <lane index="3" width="3.66" />
        <lane index="4" width="3.66" type="shoulder" disallow="all" />
    </edge>
    <edge id="105.0" from="node_105_start" to="junction_8" numLanes="1" speed="13.89" type="town" shape="767622.75,3295090.84 767604.33,3295086.82 767604.33,3295086.82 767571.57,3295079.59 767571.57,3295079.59 767548.80,3295074.48 767548.80,3295074.48 767535.55,3295071.52 767535.55,3295071.52 767515.44,3295067.16 767515.44,3295067.16 767494.56,3295062.80 767494.56,3295062.80 767493.72,3295062.63">
        <lane index="0" width="3.66" />
    </edge>
    <edge id="106.0" from="node_106_start" to="node_106_end" numLanes="5" speed="13.89" type="town" shape="765185.20,3294671.52 765175.12,3294669.89 765175.12,3294669.89 765160.23,3294667.51 765160.23,3294667.51 765148.06,3294665.50 765148.06,3294665.50 765136.56,3294663.70 765136.56,3294663.70 765122.72,3294661.52 765122.72,3294661.52 765110.64,3294659.59 765110.64,3294659.59 765098.69,3294657.71 765098.69,3294657.71 765085.41,3294655.60 765085.41,3294655.60 765070.85,3294653.24 765070.85,3294653.24 765056.89,3294651.02 765056.89,3294651.02 765044.45,3294648.99 765044.45,3294648.99 765041.30,3294648.47">
        <lane index="0" width="3.66" type="shoulder" disallow="all" />
        <lane index="1" width="3.66" />
        <lane index="2" width="3.66" />
        <lane index="3" width="3.66" />
        <lane index="4" width="3.66" type="shoulder" disallow="all" />
    </edge>
    <edge id="107.0" from="node_113_start" to="junction_7" numLanes="1" speed="13.89" type="town" shape="767343.98,3295034.87 767336.01,3295033.44 767336.01,3295033.44 767316.66,3295029.93 767316.66,3295029.93 767295.21,3295026.04 767295.21,3295026.04 767273.57,3295022.09 767273.57,3295022.09 767255.49,3295018.79 767255.49,3295018.79 767239.86,3295016.13 767239.86,3295016.13 767230.73,3295014.57">
        <lane index="0" width="3.66" />
    </edge>
    <edge id="108.0" from="junction_7" to="node_108_end" numLanes="5" speed="13.89" type="town" shape="767022.16,3294965.89 767020.02,3294965.55 767020.02,3294965.55 767015.84,3294964.88 767015.84,3294964.88 767011.45,3294964.18 767011.45,3294964.18 767007.03,3294963.46 767007.03,3294963.46 767002.42,3294962.74 767002.42,3294962.74 766998.22,3294962.07 766998.22,3294962.07 766993.68,3294961.33 766993.68,3294961.33 766988.74,3294960.55 766988.74,3294960.55 766983.67,3294959.72 766983.67,3294959.72 766978.74,3294958.93 766978.74,3294958.93 766972.70,3294957.97 766972.70,3294957.97 766963.39,3294956.47 766963.39,3294956.47 766953.05,3294954.81 766953.05,3294954.81 766945.87,3294953.66 766945.87,3294953.66 766938.41,3294952.46 766938.41,3294952.46 766932.01,3294951.42 766932.01,3294951.42 766925.66,3294950.41 766925.66,3294950.41 766918.45,3294949.25 766918.45,3294949.25 766918.26,3294949.22">
        <lane index="0" width="3.66" type="shoulder" disallow="all" />
        <lane index="1" width="3.66" />
        <lane index="2" width="3.66" />
        <lane index="3" width="3.66" />
        <lane index="4" width="3.66" type="shoulder" disallow="all" />
    </edge>
    <edge id="109.0" from="junction_8" to="junction_69" numLanes="6" speed="13.89" type="town" shape="767422.36,3295030.00 767415.75,3295028.96 767415.75,3295028.96 767409.41,3295027.95 767409.41,3295027.95 767401.83,3295026.73 767401.83,3295026.73 767394.70,3295025.60 767394.70,3295025.60 767386.61,3295024.32 767386.61,3295024.32 767379.08,3295023.09 767379.08,3295023.09 767371.77,3295021.92 767371.77,3295021.92 767365.25,3295020.85 767365.25,3295020.85 767358.82,3295019.83 767358.82,3295019.83 767352.87,3295018.87 767352.87,3295018.87 767347.43,3295018.03 767347.43,3295018.03 767346.52,3295017.88">
        <lane index="0" width="3.66" />
        <lane index="1" width="3.66" type="shoulder" disallow="all" />
        <lane index="2" width="3.66" />
        <lane index="3" width="3.66" />
        <lane index="4" width="3.66" />
        <lane index="5" width="3.66" type="shoulder" disallow="all" />
    </edge>
    <edge id="111.0" from="node_103_end" to="node_111_end" numLanes="4" speed="13.89" type="town" shape="762976.72,3294317.60 762975.53,3294317.41 762975.53,3294317.41 762965.41,3294315.79 762965.41,3294315.79 762953.48,3294313.89 762953.48,3294313.89 762942.24,3294312.09 762942.24,3294312.09 762930.74,3294310.26 762930.74,3294310.26 762920.01,3294308.53 762920.01,3294308.53 762909.06,3294306.77">
        <lane index="0" width="3.66" />
        <lane index="1" width="3.66" />
        <lane index="2" width="3.66" />
        <lane index="3" width="3.66" type="shoulder" disallow="all" />
    </edge>
    <edge id="112.0" from="node_112_start" to="junction_70" numLanes="5" speed="13.89" type="town" shape="766086.87,3294816.03 766083.70,3294815.52 766083.70,3294815.52 766076.63,3294814.39">
        <lane index="0" width="3.66" />
        <lane index="1" width="3.66" />
        <lane index="2" width="3.66" />
        <lane index="3" width="3.66" />
        <lane index="4" width="3.66" type="shoulder" disallow="all" />
    </edge>
    <edge id="113.0" from="node_113_start" to="junction_7" numLanes="4" speed="13.89" type="town" shape="767346.52,3295017.88 767342.00,3295017.15 767342.00,3295017.15 767336.96,3295016.34 767336.96,3295016.34 767330.94,3295015.36 767330.94,3295015.36 767325.24,3295014.47 767325.24,3295014.47 767319.46,3295013.52 767319.46,3295013.52 767313.32,3295012.53 767313.32,3295012.53 767307.12,3295011.53 767307.12,3295011.53 767300.59,3295010.50 767300.59,3295010.50 767294.05,3295009.47 767294.05,3295009.47 767287.44,3295008.40 767287.44,3295008.40 767282.15,3295007.57 767282.15,3295007.57 767276.20,3295006.60 767276.20,3295006.60 767269.88,3295005.59 767269.88,3295005.59 767263.45,3295004.57 767263.45,3295004.57 767257.51,3295003.61 767257.51,3295003.61 767251.49,3295002.64 767251.49,3295002.64 767245.55,3295001.69 767245.55,3295001.69 767239.47,3295000.73 767239.47,3295000.73 767233.48,3294999.75 767233.48,3294999.75 767232.76,3294999.64">
        <lane index="0" width="3.66" />
        <lane index="1" width="3.66" />
        <lane index="2" width="3.66" />
        <lane index="3" width="3.66" type="shoulder" disallow="all" />
    </edge>
    <edge id="114.0" from="junction_70" to="node_114_end" numLanes="1" speed="13.89" type="town" shape="766021.20,3294824.28 766007.60,3294823.01 766007.60,3294823.01 765991.90,3294821.45 765991.90,3294821.45 765985.49,3294820.84">
        <lane index="0" width="3.66" />
    </edge>
    <edge id="116.0" from="node_116_start" to="junction_6" numLanes="1" speed="13.89" type="town" shape="763203.71,3294377.33 763194.91,3294375.51 763194.91,3294375.51 763175.02,3294371.65 763175.02,3294371.65 763151.30,3294367.24 763151.30,3294367.24 763136.30,3294364.58 763136.30,3294364.58 763117.69,3294361.39 763117.69,3294361.39 763095.73,3294357.66 763095.73,3294357.66 763074.19,3294353.99 763074.19,3294353.99 763059.04,3294351.40 763059.04,3294351.40 763049.19,3294349.75">
        <lane index="0" width="3.66" />
    </edge>
    <edge id="118.0" from="node_118_start" to="node_116_start" numLanes="1" speed="13.89" type="town" shape="763244.05,3294385.87 763225.64,3294381.88 763225.64,3294381.88 763203.71,3294377.33">
        <lane index="0" width="3.66" />
    </edge>
    <edge id="119.0" from="node_119_start" to="node_119_end" numLanes="3" speed="13.89" type="town" shape="760990.45,3293856.33 760972.29,3293851.50 760972.29,3293851.50 760952.20,3293846.35">
        <lane index="0" width="3.66" type="shoulder" disallow="all" />
        <lane index="1" width="3.66" />
        <lane index="2" width="3.66" />
    </edge>
    <edge id="12.0" from="j_merge_end_2" to="node_12_end" numLanes="5" speed="13.89" type="town" shape="784011.13,3297138.92 784003.07,3297139.84 784003.07,3297139.84 783990.51,3297141.26 783990.51,3297141.26 783974.36,3297143.17 783974.36,3297143.17 783960.39,3297144.79 783960.39,3297144.79 783948.74,3297146.10 783948.74,3297146.10 783935.66,3297147.58 783935.66,3297147.58 783923.48,3297149.00">
        <lane index="0" width="3.66" />
        <lane index="1" width="3.66" />
        <lane index="2" width="3.66" />
        <lane index="3" width="3.66" />
        <lane index="4" width="3.66" type="shoulder" disallow="all" />
    </edge>
    <edge id="120.0" from="node_120_start" to="node_120_end" numLanes="5" speed="13.89" type="town" shape="761552.85,3293992.96 761548.86,3293991.93 761548.86,3293991.93 761545.24,3293991.00">
        <lane index="0" width="3.66" type="shoulder" disallow="all" />
        <lane index="1" width="3.66" />
        <lane index="2" width="3.66" />
        <lane index="3" width="3.66" />
        <lane index="4" width="3.66" type="shoulder" disallow="all" />
    </edge>
    <edge id="121.0" from="node_120_end" to="node_121_end" numLanes="5" speed="13.89" type="town" shape="761545.24,3293991.00 761523.47,3293985.41 761523.47,3293985.41 761501.80,3293979.75 761501.80,3293979.75 761480.00,3293974.22 761480.00,3293974.22 761455.00,3293967.73 761455.00,3293967.73 761431.23,3293961.64 761431.23,3293961.64 761407.05,3293955.43 761407.05,3293955.43 761363.95,3293944.39 761363.95,3293944.39 761339.01,3293937.93 761339.01,3293937.93 761315.70,3293932.05 761315.70,3293932.05 761303.71,3293928.95 761303.71,3293928.95 761289.69,3293925.35 761289.69,3293925.35 761275.10,3293921.59 761275.10,3293921.59 761271.52,3293920.72">
        <lane index="0" width="3.66" type="shoulder" disallow="all" />
        <lane index="1" width="3.66" />
        <lane index="2" width="3.66" />
        <lane index="3" width="3.66" />
        <lane index="4" width="3.66" type="shoulder" disallow="all" />
    </edge>
    <edge id="122.0" from="node_122_start" to="node_120_start" numLanes="5" speed="13.89" type="town" shape="762785.04,3294286.27 762698.48,3294270.71 762698.48,3294270.71 762676.96,3294266.77 762676.96,3294266.77 762656.45,3294262.80 762656.45,3294262.80 762639.09,3294259.40 762639.09,3294259.40 762614.81,3294254.56 762614.81,3294254.56 762558.50,3294243.08 762558.50,3294243.08 762492.46,3294228.98 762492.46,3294228.98 762474.62,3294224.99 762474.62,3294224.99 762449.48,3294219.37 762449.48,3294219.37 762431.61,3294215.54 762431.61,3294215.54 762371.46,3294201.63 762371.46,3294201.63 762329.56,3294191.64 762329.56,3294191.64 762275.03,3294178.26 762275.03,3294178.26 762261.10,3294174.78 762261.10,3294174.78 762244.21,3294170.50 762244.21,3294170.50 762227.32,3294166.19 762227.32,3294166.19 762213.03,3294162.53 762213.03,3294162.53 762192.00,3294157.12 762192.00,3294157.12 762168.14,3294151.01 762168.14,3294151.01 762151.25,3294146.64 762151.25,3294146.64 762135.38,3294142.62 762135.38,3294142.62 762113.99,3294137.11 762113.99,3294137.11 762071.99,3294126.32 762071.99,3294126.32 762055.09,3294121.79 762055.09,3294121.79 762039.29,3294117.89 762039.29,3294117.89 762026.29,3294114.52 762026.29,3294114.52 762005.88,3294109.33 762005.88,3294109.33 761983.75,3294103.57 761983.75,3294103.57 761962.10,3294098.12 761962.10,3294098.12 761901.51,3294082.58 761901.51,3294082.58 761882.26,3294077.53 761882.26,3294077.53 761865.66,3294073.29 761865.66,3294073.29 761844.91,3294068.05 761844.91,3294068.05 761826.73,3294063.40 761826.73,3294063.40 761807.74,3294058.55 761807.74,3294058.55 761786.18,3294053.04 761786.18,3294053.04 761767.69,3294048.22 761767.69,3294048.22 761750.22,3294043.79 761750.22,3294043.79 761735.50,3294039.99 761735.50,3294039.99 761721.35,3294036.37 761721.35,3294036.37 761705.50,3294032.28 761705.50,3294032.28 761691.02,3294028.56 761691.02,3294028.56 761677.79,3294025.15 761677.79,3294025.15 761649.68,3294017.98 761649.68,3294017.98 761597.55,3294004.58 761597.55,3294004.58 761571.61,3293997.86 761571.61,3293997.86 761552.85,3293992.96">
        <lane index="0" width="3.66" type="shoulder" disallow="all" />
        <lane index="1" width="3.66" />
        <lane index="2" width="3.66" />
        <lane index="3" width="3.66" />
        <lane index="4" width="3.66" type="shoulder" disallow="all" />
    </edge>
    <edge id="123.0" from="node_119_end" to="node_123_end" numLanes="3" speed="13.89" type="town" shape="760952.20,3293846.35 760936.05,3293842.24 760936.05,3293842.24 760916.01,3293837.08 760916.01,3293837.08 760893.90,3293831.37 760893.90,3293831.37 760874.32,3293826.36 760874.32,3293826.36 760853.19,3293820.91 760853.19,3293820.91 760830.45,3293815.10 760830.45,3293815.10 760806.25,3293808.87 760806.25,3293808.87 760788.20,3293804.23 760788.20,3293804.23 760771.09,3293799.89 760771.09,3293799.89 760748.23,3293793.96 760748.23,3293793.96 760719.06,3293786.52 760719.06,3293786.52 760689.53,3293778.85 760689.53,3293778.85 760644.52,3293767.38 760644.52,3293767.38 760632.33,3293764.28 760632.33,3293764.28 760626.29,3293762.71 760626.29,3293762.71 760620.30,3293761.07 760620.30,3293761.07 760611.63,3293758.54 760611.63,3293758.54 760596.07,3293753.90 760596.07,3293753.90 760584.85,3293750.61 760584.85,3293750.61 760574.19,3293747.45">
        <lane index="0" width="3.66" type="shoulder" disallow="all" />
        <lane index="1" width="3.66" />
        <lane index="2" width="3.66" />
    </edge>
    <edge id="124.0" from="node_121_end" to="node_124_end" numLanes="5" speed="13.89" type="town" shape="761271.52,3293920.72 761255.19,3293916.50 761255.19,3293916.50 761236.75,3293911.73">
        <lane index="0" width="3.66" type="shoulder" disallow="all" />
        <lane index="1" width="3.66" />
        <lane index="2" width="3.66" />
        <lane index="3" width="3.66" />
        <lane index="4" width="3.66" type="shoulder" disallow="all" />
    </edge>
    <edge id="125.0" from="node_125_start" to="node_125_end" numLanes="2" speed="13.89" type="town" shape="755318.26,3292403.22 755296.29,3292397.49 755296.29,3292397.49 755272.36,3292391.55 755272.36,3292391.55 755258.13,3292387.83 755258.13,3292387.83 755242.08,3292383.64 755242.08,3292383.64 755222.20,3292378.52 755222.20,3292378.52 755212.99,3292376.21 755212.99,3292376.21 755203.71,3292373.80 755203.71,3292373.80 755182.09,3292368.36 755182.09,3292368.36 755166.43,3292364.25 755166.43,3292364.25 755149.15,3292359.80 755149.15,3292359.80 755138.67,3292357.11 755138.67,3292357.11 755128.48,3292354.47 755128.48,3292354.47 755117.11,3292351.36 755117.11,3292351.36 755098.46,3292346.31 755098.46,3292346.31 755087.63,3292343.35 755087.63,3292343.35 755081.61,3292341.71">
        <lane index="0" width="3.66" />
        <lane index="1" width="3.66" />
    </edge>
    <edge id="126.0" from="node_126_start" to="node_126_end" numLanes="3" speed="13.89" type="town" shape="758484.61,3293211.61 758471.67,3293208.16 758471.67,3293208.16 758456.00,3293204.09 758456.00,3293204.09 758437.25,3293199.26 758437.25,3293199.26 758416.82,3293193.96 758416.82,3293193.96 758401.66,3293190.06 758401.66,3293190.06 758379.75,3293184.41 758379.75,3293184.41 758363.70,3293180.37 758363.70,3293180.37 758348.71,3293176.46 758348.71,3293176.46 758332.22,3293172.27 758332.22,3293172.27 758318.52,3293168.72 758318.52,3293168.72 758301.47,3293164.38 758301.47,3293164.38 758282.70,3293159.57 758282.70,3293159.57 758263.00,3293154.53 758263.00,3293154.53 758247.68,3293150.58 758247.68,3293150.58 758238.72,3293148.26 758238.72,3293148.26 758226.73,3293145.23">
        <lane index="0" width="3.66" type="shoulder" disallow="all" />
        <lane index="1" width="3.66" />
        <lane index="2" width="3.66" />
    </edge>
    <edge id="128.0" from="node_128_start" to="node_128_end" numLanes="2" speed="13.89" type="town" shape="757259.79,3292897.17 757240.10,3292892.10 757240.10,3292892.10 757213.34,3292885.21 757213.34,3292885.21 757201.58,3292882.19">
        <lane index="0" width="3.66" />
        <lane index="1" width="3.66" />
    </edge>
    <edge id="129.0" from="junction_9" to="node_129_end" numLanes="3" speed="13.89" type="town" shape="757743.96,3293021.37 757737.38,3293019.68">
        <lane index="0" width="3.66" />
        <lane index="1" width="3.66" />
        <lane index="2" width="3.66" />
    </edge>
    <edge id="13.0" from="junction_3" to="node_0_start" numLanes="5" speed="13.89" type="town" shape="782213.46,3297327.42 782204.48,3297328.89 782204.48,3297328.89 782191.04,3297331.11 782191.04,3297331.11 782179.38,3297333.07 782179.38,3297333.07 782165.11,3297335.49 782165.11,3297335.49 782144.78,3297339.10 782144.78,3297339.10 782137.24,3297340.28">
        <lane index="0" width="3.66" />
        <lane index="1" width="3.66" />
        <lane index="2" width="3.66" />
        <lane index="3" width="3.66" />
        <lane index="4" width="3.66" type="shoulder" disallow="all" />
    </edge>
    <edge id="131.0" from="junction_121" to="node_131_end" numLanes="1" speed="13.89" type="town" shape="758653.08,3293262.51 758641.60,3293260.92 758641.60,3293260.92 758632.31,3293259.51 758632.31,3293259.51 758618.25,3293257.15 758618.25,3293257.15 758604.23,3293254.65 758604.23,3293254.65 758603.36,3293254.49 758603.36,3293254.49 758568.05,3293247.52 758568.05,3293247.52 758546.07,3293242.73 758546.07,3293242.73 758512.24,3293236.04 758512.24,3293236.04 758496.49,3293233.69 758496.49,3293233.69 758475.47,3293230.52">
        <lane index="0" width="3.66" />
    </edge>
    <edge id="132.0" from="node_125_end" to="node_132_end" numLanes="2" speed="13.89" type="town" shape="755081.61,3292341.71 755055.11,3292334.58 755055.11,3292334.58 755037.09,3292329.96 755037.09,3292329.96 755014.96,3292324.57 755014.96,3292324.57 754992.50,3292319.49 754992.50,3292319.49 754967.52,3292313.82 754967.52,3292313.82 754941.40,3292307.96 754941.40,3292307.96 754909.28,3292300.40 754909.28,3292300.40 754869.23,3292290.24 754869.23,3292290.24 754819.92,3292277.53 754819.92,3292277.53 754794.20,3292270.97 754794.20,3292270.97 754761.06,3292262.40 754761.06,3292262.40 754716.78,3292251.08 754716.78,3292251.08 754678.94,3292241.32 754678.94,3292241.32 754627.67,3292228.23 754627.67,3292228.23 754600.34,3292221.22 754600.34,3292221.22 754569.08,3292213.16 754569.08,3292213.16 754545.05,3292206.98 754545.05,3292206.98 754519.05,3292200.35 754519.05,3292200.35 754498.24,3292194.98 754498.24,3292194.98 754485.77,3292191.84 754485.77,3292191.84 754473.23,3292188.58 754473.23,3292188.58 754449.07,3292182.46 754449.07,3292182.46 754418.58,3292174.58 754418.58,3292174.58 754366.70,3292161.26 754366.70,3292161.26 754322.87,3292150.00 754322.87,3292150.00 754299.17,3292143.90 754299.17,3292143.90 754268.63,3292136.03 754268.63,3292136.03 754235.15,3292127.42 754235.15,3292127.42 754201.20,3292118.75 754201.20,3292118.75 754179.33,3292113.05 754179.33,3292113.05 754145.51,3292104.43 754145.51,3292104.43 754115.17,3292096.68 754115.17,3292096.68 754082.16,3292088.19 754082.16,3292088.19 754064.17,3292083.62">
        <lane index="0" width="3.66" />
        <lane index="1" width="3.66" />
    </edge>
    <edge id="133.0" from="node_133_start" to="junction_9" numLanes="1" speed="13.89" type="town" shape="757855.89,3293072.24 757850.93,3293067.12 757850.93,3293067.12 757847.93,3293064.81 757847.93,3293064.81 757843.52,3293062.41 757843.52,3293062.41 757830.93,3293057.60 757830.93,3293057.60 757816.84,3293052.57 757816.84,3293052.57 757803.00,3293047.82 757803.00,3293047.82 757791.67,3293044.16">
        <lane index="0" width="3.66" />
    </edge>
    <edge id="134.0" from="node_134_start" to="node_134_end" numLanes="2" speed="13.89" type="town" shape="747791.16,3290475.06 747777.01,3290471.41 747777.01,3290471.41 747762.71,3290467.50 747762.71,3290467.50 747746.41,3290462.96 747746.41,3290462.96 747731.31,3290458.86 747731.31,3290458.86 747715.69,3290454.58 747715.69,3290454.58 747690.96,3290448.04 747690.96,3290448.04 747682.49,3290445.86 747682.49,3290445.86 747661.85,3290440.79 747661.85,3290440.79 747639.80,3290435.62 747639.80,3290435.62 747624.59,3290431.96 747624.59,3290431.96 747603.73,3290427.25 747603.73,3290427.25 747583.41,3290422.68 747583.41,3290422.68 747558.48,3290417.03 747558.48,3290417.03 747541.62,3290413.09 747541.62,3290413.09 747512.84,3290406.30 747512.84,3290406.30 747485.57,3290399.90 747485.57,3290399.90 747459.39,3290394.08 747459.39,3290394.08 747440.34,3290389.87 747440.34,3290389.87 747420.73,3290385.71 747420.73,3290385.71 747395.12,3290380.48 747395.12,3290380.48 747356.84,3290372.95 747356.84,3290372.95 747318.84,3290365.92 747318.84,3290365.92 747283.17,3290359.97 747283.17,3290359.97 747248.38,3290353.75 747248.38,3290353.75 747232.74,3290351.34 747232.74,3290351.34 747214.85,3290348.79 747214.85,3290348.79 747159.92,3290341.24 747159.92,3290341.24 747137.17,3290338.15 747137.17,3290338.15 747099.59,3290333.05 747099.59,3290333.05 747080.99,3290330.51 747080.99,3290330.51 747059.13,3290327.53 747059.13,3290327.53 747018.62,3290321.99 747018.62,3290321.99 746989.03,3290317.90 746989.03,3290317.90 746943.86,3290311.80 746943.86,3290311.80 746895.77,3290305.25 746895.77,3290305.25 746850.25,3290298.99 746850.25,3290298.99 746801.24,3290292.26 746801.24,3290292.26 746750.65,3290285.48 746750.65,3290285.48 746706.45,3290279.46 746706.45,3290279.46 746664.94,3290273.71 746664.94,3290273.71 746624.96,3290268.25 746624.96,3290268.25 746592.42,3290263.80 746592.42,3290263.80 746534.03,3290255.93 746534.03,3290255.93 746488.41,3290249.83 746488.41,3290249.83 746439.76,3290243.76 746439.76,3290243.76 746419.87,3290241.42 746419.87,3290241.42 746399.99,3290239.27 746399.99,3290239.27 746373.29,3290236.44 746373.29,3290236.44 746339.41,3290233.12 746339.41,3290233.12 746305.11,3290229.63 746305.11,3290229.63 746276.71,3290226.60 746276.71,3290226.60 746240.48,3290222.42 746240.48,3290222.42 746220.30,3290219.85 746220.30,3290219.85 746199.68,3290217.10 746199.68,3290217.10 746175.27,3290213.88 746175.27,3290213.88 746138.87,3290208.94 746138.87,3290208.94 746105.55,3290204.59 746105.55,3290204.59 746091.88,3290202.78 746091.88,3290202.78 746078.15,3290201.14 746078.15,3290201.14 746058.86,3290198.96 746058.86,3290198.96 746036.69,3290196.37">
        <lane index="0" width="3.66" />
        <lane index="1" width="3.66" />
    </edge>
    <edge id="135.0" from="node_135_start" to="node_135_end" numLanes="2" speed="13.89" type="town" shape="748057.52,3290543.62 748044.93,3290540.40 748044.93,3290540.40 748032.35,3290537.19 748032.35,3290537.19 748019.76,3290533.97 748019.76,3290533.97 748007.17,3290530.76">
        <lane index="0" width="3.66" />
        <lane index="1" width="3.66" />
    </edge>
    <edge id="136.0" from="node_135_end" to="node_136_end" numLanes="2" speed="13.89" type="town" shape="748007.17,3290530.76 747992.31,3290526.89 747992.31,3290526.89 747974.48,3290522.38 747974.48,3290522.38 747956.06,3290517.52 747956.06,3290517.52 747934.45,3290511.93 747934.45,3290511.93 747902.26,3290503.72 747902.26,3290503.72 747883.66,3290499.00">
        <lane index="0" width="3.66" />
        <lane index="1" width="3.66" />
    </edge>
    <edge id="137.0" from="node_137_start" to="node_137_end" numLanes="2" speed="13.89" type="town" shape="749791.96,3290987.88 749778.33,3290984.39 749778.33,3290984.39 749764.69,3290980.89 749764.69,3290980.89 749751.06,3290977.40 749751.06,3290977.40 749737.42,3290973.90">
        <lane index="0" width="3.66" />
        <lane index="1" width="3.66" />
    </edge>
    <edge id="138.0" from="node_137_end" to="node_138_end" numLanes="2" speed="13.89" type="town" shape="749737.42,3290973.90 749721.11,3290969.73 749721.11,3290969.73 749687.09,3290961.00">
        <lane index="0" width="3.66" />
        <lane index="1" width="3.66" />
    </edge>
    <edge id="139.0" from="node_136_end" to="node_134_start" numLanes="2" speed="13.89" type="town" shape="747883.66,3290499.00 747855.92,3290491.87 747855.92,3290491.87 747834.29,3290486.38 747834.29,3290486.38 747824.51,3290483.83 747824.51,3290483.83 747812.48,3290480.72 747812.48,3290480.72 747791.16,3290475.06">
        <lane index="0" width="3.66" />
        <lane index="1" width="3.66" />
    </edge>
    <edge id="140.0" from="node_140_start" to="node_140_end" numLanes="3" speed="13.89" type="town" shape="741743.79,3289310.42 741723.47,3289304.22 741723.47,3289304.22 741711.76,3289300.62 741711.76,3289300.62 741693.62,3289294.92">
        <lane index="0" width="3.66" type="shoulder" disallow="all" />
        <lane index="1" width="3.66" />
        <lane index="2" width="3.66" />
    </edge>
    <edge id="141.0" from="junction_120" to="node_140_start" numLanes="2" speed="13.89" type="town" shape="741819.81,3289333.90 741794.66,3289326.37 741794.66,3289326.37 741764.95,3289316.96 741764.95,3289316.96 741743.79,3289310.42">
        <lane index="0" width="3.66" />
        <lane index="1" width="3.66" />
    </edge>