<?xml version='1.0' encoding='utf-8'?>
<nodes>
    <node id="node_0_start" x="782137.2361639799" y="3297340.2761182026" type="priority" />
    <node id="node_0_end" x="781759.0402068994" y="3297393.8855463667" type="priority" />
    <node id="node_100_start" x="763206.2754188534" y="3294354.403458762" type="priority" />
    <node id="node_101_start" x="767705.2048911547" y="3295075.3472868097" type="priority" />
    <node id="node_101_end" x="767664.4587974041" y="3295068.791866886" type="priority" />
    <node id="node_103_end" x="762976.7181180777" y="3294317.5996933896" type="priority" />
    <node id="node_104_start" x="765559.3347757297" y="3294731.477681463" type="priority" />
    <node id="node_104_end" x="765551.1499114453" y="3294730.1578268507" type="priority" />
    <node id="node_105_start" x="767622.745799907" y="3295090.8360105637" type="priority" />
    <node id="node_106_start" x="765185.2033123495" y="3294671.5157127962" type="priority" />
    <node id="node_106_end" x="765041.2966880284" y="3294648.4675260657" type="priority" />
    <node id="node_107_start" x="767343.9783286534" y="3295034.867428409" type="priority" />
    <node id="node_108_end" x="766918.2634849041" y="3294949.2186247" type="priority" />
    <node id="node_111_end" x="762909.0612752629" y="3294306.77405389" type="priority" />
    <node id="node_112_start" x="766086.8728599034" y="3294816.0263639563" type="priority" />
    <node id="node_113_start" x="767346.5193442784" y="3295017.878536808" type="priority" />
    <node id="node_114_end" x="765985.4885011443" y="3294820.838680307" type="priority" />
    <node id="node_116_start" x="763203.7106799246" y="3294377.3326390875" type="priority" />
    <node id="node_118_start" x="763244.0533866971" y="3294385.8724791287" type="priority" />
    <node id="node_119_start" x="760990.4517635262" y="3293856.3343937127" type="priority" />
    <node id="node_119_end" x="760952.1980392344" y="3293846.34815412" type="priority" />
    <node id="node_12_end" x="783923.4773520919" y="3297149.002834904" type="priority" />
    <node id="node_120_start" x="761552.8502313502" y="3293992.9572589407" type="priority" />
    <node id="node_120_end" x="761545.2426776846" y="3293990.998451059" type="priority" />
    <node id="node_121_end" x="761271.5194468922" y="3293920.719246175" type="priority" />
    <node id="node_122_start" x="762785.0388755286" y="3294286.2748991144" type="priority" />
    <node id="node_123_end" x="760574.1923643671" y="3293747.445246442" type="priority" />
    <node id="node_124_end" x="761236.7530399954" y="3293911.729923735" type="priority" />
    <node id="node_125_start" x="755318.2587192715" y="3292403.217742351" type="priority" />
    <node id="node_125_end" x="755081.6101845353" y="3292341.7117862785" type="priority" />
    <node id="node_126_start" x="758484.6141738921" y="3293211.6126987943" type="priority" />
    <node id="node_126_end" x="758226.7265158482" y="3293145.225680763" type="priority" />
    <node id="node_128_start" x="757259.7868899987" y="3292897.169196277" type="priority" />
    <node id="node_128_end" x="757201.5758414327" y="3292882.1851579472" type="priority" />
    <node id="node_129_end" x="757737.3787192792" y="3293019.6779752867" type="priority" />
    <node id="node_131_end" x="758475.4734869295" y="3293230.520695519" type="priority" />
    <node id="node_132_end" x="754064.1696775018" y="3292083.6157253073" type="priority" />
    <node id="node_133_start" x="757855.88549041" y="3293072.243485847" type="priority" />
    <node id="node_134_start" x="747791.1602100721" y="3290475.0598670514" type="priority" />
    <node id="node_134_end" x="746036.6920361179" y="3290196.3656466017" type="priority" />
    <node id="node_135_start" x="748057.5203137842" y="3290543.6152023682" type="priority" />
    <node id="node_135_end" x="748007.1749253392" y="3290530.7558479975" type="priority" />
    <node id="node_136_end" x="747883.6556882533" y="3290499.0004430204" type="priority" />
    <node id="node_137_start" x="749791.9647502747" y="3290987.884449536" type="priority" />
    <node id="node_137_end" x="749737.4233920824" y="3290973.899531002" type="priority" />
    <node id="node_138_end" x="749687.0900497846" y="3290960.9997731037" type="priority" />
    <node id="node_140_start" x="741743.787660392" y="3289310.4162137904" type="priority" />
    <node id="node_140_end" x="741693.6194851759" y="3289294.924061666" type="priority" />
    <node id="node_142_start" x="745399.4378507063" y="3290089.0760683543" type="priority" />
    <node id="node_142_end" x="744208.0879489378" y="3289864.5371632585" type="priority" />
    <node id="node_143_start" x="745673.3574000135" y="3290142.4531784416" type="priority" />
    <node id="node_145_start" x="741741.482633636" y="3289322.604631022" type="priority" />
    <node id="node_146_start" x="741797.2119744951" y="3289336.0125594107" type="priority" />
    <node id="node_149_start" x="738540.8377036542" y="3287479.8137174738" type="priority" />
    <node id="node_149_end" x="738500.1111411536" y="3287448.88305341" type="priority" />
    <node id="node_15_start" x="779739.2734830077" y="3297508.550755592" type="priority" />
    <node id="node_15_end" x="779074.6526450601" y="3297461.2468534587" type="priority" />
    <node id="node_150_start" x="738227.9822349036" y="3287325.4221159085" type="priority" />
    <node id="node_150_end" x="737817.7673911528" y="3287185.956295597" type="priority" />
    <node id="node_152_start" x="737717.126766154" y="3287176.895748721" type="priority" />
    <node id="node_152_end" x="737584.9234799496" y="3287180.5880574128" type="priority" />
    <node id="node_153_start" x="740769.7813266538" y="3288726.2415158255" type="priority" />
    <node id="node_153_end" x="738574.536922402" y="3287508.8137174724" type="priority" />
    <node id="node_154_start" x="738372.6423911541" y="3287380.87914716" type="priority" />
    <node id="node_154_end" x="738321.048863797" y="3287361.0245823553" type="priority" />
    <node id="node_158_end" x="740947.7752036545" y="3288861.6818815353" type="priority" />
    <node id="node_16_start" x="785320.0706138099" y="3296989.2879758957" type="priority" />
    <node id="node_16_end" x="785225.7579575919" y="3297000.0494677643" type="priority" />
    <node id="node_160_end" x="735494.9441112031" y="3287326.187492036" type="priority" />
    <node id="node_162_start" x="740882.0486411544" y="3288811.6696745027" type="priority" />
    <node id="node_163_start" x="738571.1294649432" y="3287511.922509111" type="priority" />
    <node id="node_163_end" x="738535.0357703271" y="3287486.1259316173" type="priority" />
    <node id="node_168_start" x="737919.2137721853" y="3287233.260860908" type="priority" />
    <node id="node_169_start" x="741073.0332602947" y="3289001.070675482" type="priority" />
    <node id="node_17_start" x="782659.5636711894" y="3297297.952294224" type="priority" />
    <node id="node_172_start" x="732846.0586814368" y="3287260.957424748" type="priority" />
    <node id="node_174_end" x="731614.4999077264" y="3287216.381412568" type="priority" />
    <node id="node_176_end" x="731552.5883725716" y="3287214.6382978274" type="priority" />
    <node id="node_177_end" x="732846.0681724045" y="3287250.925045598" type="priority" />
    <node id="node_179_end" x="735117.1693992084" y="3287338.2310759295" type="priority" />
    <node id="node_18_end" x="781299.5702820816" y="3297473.321502749" type="priority" />
    <node id="node_180_end" x="733121.7081870518" y="3287324.0485798013" type="priority" />
    <node id="node_182_end" x="730970.8650474038" y="3287198.239498723" type="priority" />
    <node id="node_184_start" x="734545.1931724036" y="3287299.284420598" type="priority" />
    <node id="node_185_start" x="734545.0849265817" y="3287309.470120031" type="priority" />
    <node id="node_186_start" x="731004.1231346807" y="3287210.972761754" type="priority" />
    <node id="node_186_end" x="730970.8890952561" y="3287208.346096445" type="priority" />
    <node id="node_188_start" x="731078.5474203912" y="3287221.6648203824" type="priority" />
    <node id="node_190_start" x="734686.3331261369" y="3287368.459591914" type="priority" />
    <node id="node_192_start" x="733329.062528322" y="3287264.587024713" type="priority" />
    <node id="node_193_end" x="733387.1056631829" y="3287266.1627361006" type="priority" />
    <node id="node_194_start" x="732969.725154707" y="3287319.918361295" type="priority" />
    <node id="node_197_end" x="731464.021602579" y="3287226.0552331093" type="priority" />
    <node id="node_200_start" x="727246.1437949624" y="3286911.8680082443" type="priority" />
    <node id="node_202_start" x="727247.112087228" y="3286901.790402043" type="priority" />
    <node id="node_203_end" x="727979.4750938208" y="3286978.7069975026" type="priority" />
    <node id="node_204_end" x="727980.1851461611" y="3286968.6351286056" type="priority" />
    <node id="node_206_start" x="727392.6858481845" y="3286975.999386179" type="priority" />
    <node id="node_207_end" x="727786.5783334908" y="3286988.5467235283" type="priority" />
    <node id="node_208_start" x="715468.0331978208" y="3286738.8858581875" type="priority" />
    <node id="node_208_end" x="714849.8810401226" y="3286676.4819901674" type="priority" />
    <node id="node_213_end" x="709111.6967721524" y="3286420.84166171" type="priority" />
    <node id="node_214_start" x="714848.9744224036" y="3286686.4904752844" type="priority" />
    <node id="node_214_end" x="714814.326381316" y="3286681.108529637" type="priority" />
    <node id="node_217_start" x="715071.435464965" y="3286750.6420646836" type="priority" />
    <node id="node_219_start" x="715467.0913502818" y="3286748.9969695616" type="priority" />
    <node id="node_219_end" x="715233.2652558768" y="3286774.4261442306" type="priority" />
    <node id="node_221_start" x="708522.6207407587" y="3286674.3539840155" type="priority" />
    <node id="node_221_end" x="708476.1462974037" y="3286694.461178411" type="priority" />
    <node id="node_222_end" x="707860.8758140308" y="3286959.066499856" type="priority" />
    <node id="node_225_end" x="708389.7441743998" y="3286747.8232316147" type="priority" />
    <node id="node_228_end" x="706580.6981199903" y="3287060.4602507255" type="priority" />
    <node id="node_230_start" x="707865.0110205801" y="3286968.7264519813" type="priority" />
    <node id="node_231_start" x="708073.7451896284" y="3286917.1955887107" type="priority" />
    <node id="node_232_end" x="773219.528101049" y="3295538.7615216994" type="priority" />
    <node id="node_236_start" x="757554.1247298012" y="3292972.5907074027" type="priority" />
    <node id="node_238_start" x="757735.3444220826" y="3293026.5000622566" type="priority" />
    <node id="node_238_end" x="757553.3672131422" y="3292976.268675161" type="priority" />
    <node id="node_239_start" x="740877.8073806608" y="3288817.677311037" type="priority" />
    <node id="node_239_end" x="740767.4164656454" y="3288728.988576204" type="priority" />
    <node id="node_24_end" x="783032.7015561609" y="3297255.2542458083" type="priority" />
    <node id="node_240_start" x="762888.3162619909" y="3294318.488672655" type="priority" />
    <node id="node_240_end" x="762783.3283990492" y="3294297.3983495054" type="priority" />
    <node id="node_241_end" x="776897.176384903" y="3296945.5554362154" type="priority" />
    <node id="node_244_start" x="761235.3097374276" y="3293918.9758620984" type="priority" />
    <node id="node_245_start" x="761236.3672324931" y="3293915.4844500674" type="priority" />
    <node id="node_25_start" x="780296.5994776685" y="3297569.111236818" type="priority" />
    <node id="node_250_start" x="731614.5685755757" y="3287219.9888356565" type="priority" />
    <node id="node_250_end" x="731552.6714843248" y="3287221.628834597" type="priority" />
    <node id="node_253_start" x="733387.122133152" y="3287269.867887177" type="priority" />
    <node id="node_253_end" x="733328.928625216" y="3287271.568038052" type="priority" />
    <node id="node_257_start" x="786415.8548281541" y="3297056.458567095" type="priority" />
    <node id="node_258_start" x="787752.0103044749" y="3297459.6706214584" type="priority" />
    <node id="node_260_start" x="794623.9101738425" y="3298178.684179225" type="priority" />
    <node id="node_260_end" x="793606.0176554007" y="3298142.9107249994" type="priority" />
    <node id="node_27_start" x="774774.0102500039" y="3295888.8860214227" type="priority" />
    <node id="node_27_end" x="774085.3576214835" y="3295629.554826542" type="priority" />
    <node id="node_271_start" x="804090.5451310815" y="3298266.935551095" type="priority" />
    <node id="node_274_end" x="785062.564137006" y="3297046.1434092876" type="priority" />
    <node id="node_276_end" x="794505.3388438043" y="3298202.11328404" type="priority" />
    <node id="node_278_start" x="797569.4591620051" y="3298202.7021988267" type="priority" />
    <node id="node_280_end" x="798148.4950731235" y="3298115.188934618" type="priority" />
    <node id="node_282_end" x="799968.2778064486" y="3298176.8311802405" type="priority" />
    <node id="node_283_start" x="801359.556749121" y="3298305.3491184684" type="priority" />
    <node id="node_286_end" x="801915.2400817256" y="3298232.2233350477" type="priority" />
    <node id="node_287_start" x="804252.294278906" y="3298299.772509298" type="priority" />
    <node id="node_290_start" x="793073.443296938" y="3298177.2627869165" type="priority" />
    <node id="node_291_start" x="793562.7252420685" y="3298141.302649531" type="priority" />
    <node id="node_293_start" x="791760.1131620377" y="3298520.2173457383" type="priority" />
    <node id="node_295_end" x="791062.5542736389" y="3298436.637188879" type="priority" />
    <node id="node_296_end" x="790184.6597986217" y="3298209.6948659187" type="priority" />
    <node id="node_297_start" x="793857.9432858047" y="3298182.015850422" type="priority" />
    <node id="node_299_end" x="790860.616769264" y="3298432.3791804393" type="priority" />
    <node id="node_30_start" x="775655.8746068059" y="3296220.717479836" type="priority" />
    <node id="node_30_end" x="775342.7908800655" y="3296103.0179740367" type="priority" />
    <node id="node_302_end" x="790048.0755060716" y="3298168.4387260843" type="priority" />
    <node id="node_303_start" x="785529.9675808342" y="3296965.40927054" type="priority" />
    <node id="node_308_end" x="792805.4308122096" y="3298158.086762383" type="priority" />
    <node id="node_310_start" x="795209.6639995804" y="3298198.967511151" type="priority" />
    <node id="node_311_start" x="797296.7076424921" y="3298085.370418347" type="priority" />
    <node id="node_312_end" x="798185.1043707237" y="3298089.0345479413" type="priority" />
    <node id="node_314_end" x="800039.972962131" y="3298145.1110359295" type="priority" />
    <node id="node_316_start" x="801137.545245083" y="3298178.585503012" type="priority" />
    <node id="node_317_end" x="802030.0290197751" y="3298205.2426771484" type="priority" />
    <node id="node_319_start" x="784387.7472345445" y="3297121.075091574" type="priority" />
    <node id="node_32_start" x="775256.0424322471" y="3296070.2236883375" type="priority" />
    <node id="node_321_start" x="702430.429108978" y="3286578.6624441566" type="priority" />
    <node id="node_321_end" x="702349.3337513511" y="3286559.681434085" type="priority" />
    <node id="node_324_end" x="702431.6417838708" y="3286572.139986996" type="priority" />
    <node id="node_325_start" x="702350.0296303288" y="3286556.0569823356" type="priority" />
    <node id="node_329_start" x="702683.6682232837" y="3286645.0383676863" type="priority" />
    <node id="node_33_end" x="775719.1019833155" y="3296244.67970541" type="priority" />
    <node id="node_330_end" x="703088.1117631525" y="3286749.5419437215" type="priority" />
    <node id="node_331_start" x="703441.2641075479" y="3286770.6569511145" type="priority" />
    <node id="node_332_start" x="693660.0140980538" y="3286286.782850265" type="priority" />
    <node id="node_332_end" x="692947.5016223852" y="3286287.3686323427" type="priority" />
    <node id="node_333_start" x="693660.0874683409" y="3286296.7494384246" type="priority" />
    <node id="node_333_end" x="693447.2012453291" y="3286325.6280392306" type="priority" />
    <node id="node_338_start" x="692947.3936115315" y="3286297.3924586615" type="priority" />
    <node id="node_339_start" x="693119.1959123443" y="3286315.9665715136" type="priority" />
    <node id="node_34_start" x="777532.9300915669" y="3297277.518287793" type="priority" />
    <node id="node_340_end" x="684028.2291079375" y="3286724.298281661" type="priority" />
    <node id="node_341_start" x="684027.4966556053" y="3286734.451586907" type="priority" />
    <node id="node_341_end" x="683746.8433038223" y="3286746.6346015814" type="priority" />
    <node id="node_342_start" x="682375.8053234521" y="3286656.359656601" type="priority" />
    <node id="node_343_end" x="682549.7033004778" y="3286663.8163332734" type="priority" />
    <node id="node_345_start" x="682933.1863371951" y="3286741.2358127125" type="priority" />
    <node id="node_347_start" x="682549.2969027688" y="3286670.652316322" type="priority" />
    <node id="node_347_end" x="682375.6086500455" y="3286659.951073456" type="priority" />
    <node id="node_35_end" x="776742.9627036536" y="3296795.0077634933" type="priority" />
    <node id="node_351_end" x="676855.264117022" y="3286053.99204464" type="priority" />
    <node id="node_352_end" x="675984.395956965" y="3286049.304009844" type="priority" />
    <node id="node_355_end" x="669346.1113154943" y="3285719.928080995" type="priority" />
    <node id="node_356_start" x="676211.0940546622" y="3286087.58166103" type="priority" />
    <node id="node_356_end" x="675984.1333338867" y="3286059.379540607" type="priority" />
    <node id="node_357_end" x="676855.0855135802" y="3286064.0036867373" type="priority" />
    <node id="node_358_end" x="676485.4567695195" y="3286110.6021831036" type="priority" />
    <node id="node_361_start" x="668476.5528394873" y="3285357.9009158285" type="priority" />
    <node id="node_361_end" x="668389.360762201" y="3285321.566960538" type="priority" />
    <node id="node_364_end" x="669109.5153171031" y="3285654.2511627562" type="priority" />
    <node id="node_365_start" x="668846.2956592184" y="3285574.4368497897" type="priority" />
    <node id="node_366_end" x="669286.946585141" y="3285695.240346143" type="priority" />
    <node id="node_370_start" x="668474.070096157" y="3285364.3497955687" type="priority" />
    <node id="node_370_end" x="668387.906645985" y="3285324.915262412" type="priority" />
    <node id="node_373_end" x="664817.7096496243" y="3283416.8834921857" type="priority" />
    <node id="node_374_start" x="664742.5439213482" y="3283405.3226887817" type="priority" />
    <node id="node_375_end" x="663897.9203247573" y="3283312.600763164" type="priority" />
    <node id="node_376_start" x="664247.5111363155" y="3283409.3363373177" type="priority" />
    <node id="node_378_end" x="664519.9652987935" y="3283429.5515482314" type="priority" />
    <node id="node_382_start" x="663814.6885562792" y="3283303.4569705618" type="priority" />
    <node id="node_386_start" x="663897.1252764092" y="3283320.419449528" type="priority" />
    <node id="node_386_end" x="663814.3144991797" y="3283307.119314463" type="priority" />
    <node id="node_387_end" x="653852.6635694306" y="3282054.01189786" type="priority" />
    <node id="node_388_start" x="653851.2641574357" y="3282064.0320160734" type="priority" />
    <node id="node_388_end" x="653670.9860508074" y="3282056.742251861" type="priority" />
    <node id="node_39_end" x="776707.2933157275" y="3296760.207835757" type="priority" />
    <node id="node_392_end" x="652775.9815646636" y="3281908.197482397" type="priority" />
    <node id="node_393_start" x="653022.5859402141" y="3281979.397761856" type="priority" />
    <node id="node_394_start" x="652775.0577670557" y="3281914.7378568556" type="priority" />
    <node id="node_394_end" x="652651.0683092911" y="3281895.0610833126" type="priority" />
    <node id="node_395_start" x="652651.596864701" y="3281891.3971192534" type="priority" />
    <node id="node_398_end" x="645090.2499667621" y="3280964.800692787" type="priority" />
    <node id="node_4_end" x="783587.4876059981" y="3297180.2271238444" type="priority" />
    <node id="node_400_start" x="644257.6919223878" y="3281012.018832434" type="priority" />
    <node id="node_401_start" x="644360.3570224273" y="3281006.25918888" type="priority" />
    <node id="node_404_end" x="645090.9823276022" y="3280974.8063079612" type="priority" />
    <node id="node_405_end" x="644868.1724518762" y="3281038.129733314" type="priority" />
    <node id="node_407_start" x="644596.1158116088" y="3281018.601962318" type="priority" />
    <node id="node_41_end" x="778681.5887043136" y="3297457.641202071" type="priority" />
    <node id="node_410_start" x="636658.5012356834" y="3281201.9789364296" type="priority" />
    <node id="node_410_end" x="635639.9765373017" y="3280998.7180767655" type="priority" />
    <node id="node_412_start" x="635964.0836464381" y="3281119.170627107" type="priority" />
    <node id="node_412_end" x="635638.0345126608" y="3281008.6244842904" type="priority" />
    <node id="node_416_start" x="636656.4091117848" y="3281211.4943827167" type="priority" />
    <node id="node_416_end" x="636383.714139126" y="3281197.2843963997" type="priority" />
    <node id="node_418_start" x="630155.3486605502" y="3280876.7455169437" type="priority" />
    <node id="node_418_end" x="629956.7572297071" y="3280913.5216398137" type="priority" />
    <node id="node_419_start" x="630154.3497673192" y="3280866.582998924" type="priority" />
    <node id="node_42_start" x="777529.7803891472" y="3297298.047742273" type="priority" />
    <node id="node_420_start" x="628919.1448614385" y="3280954.827531326" type="priority" />
    <node id="node_420_end" x="626647.7062133871" y="3280353.72084509" type="priority" />
    <node id="node_421_end" x="629005.3297864855" y="3280948.5418395596" type="priority" />
    <node id="node_426_start" x="629005.593809246" y="3280955.051542815" type="priority" />
    <node id="node_426_end" x="628919.5292348887" y="3280958.459927286" type="priority" />
    <node id="node_427_start" x="629438.588223598" y="3280963.114237535" type="priority" />
    <node id="node_432_end" x="625613.6633960631" y="3280020.5465809503" type="priority" />
    <node id="node_436_end" x="626596.1868402152" y="3280337.124700743" type="priority" />
    <node id="node_438_end" x="626396.0032628402" y="3280297.651034584" type="priority" />
    <node id="node_439_start" x="625610.3777132849" y="3280030.3173555024" type="priority" />
    <node id="node_440_start" x="625834.7172519185" y="3280153.2617523572" type="priority" />
    <node id="node_441_start" x="616121.9608394774" y="3276875.909180605" type="priority" />
    <node id="node_443_start" x="616823.8874790272" y="3277119.301608254" type="priority" />
    <node id="node_443_end" x="616723.216691662" y="3277084.354768425" type="priority" />
    <node id="node_444_end" x="619678.4665805319" y="3278119.646823218" type="priority" />
    <node id="node_445_end" x="614870.7527580461" y="3276723.10754126" type="priority" />
    <node id="node_446_start" x="619681.5597812149" y="3278109.8800384304" type="priority" />
    <node id="node_447_start" x="617995.929111458" y="3277525.7171211247" type="priority" />
    <node id="node_447_end" x="617933.9092241526" y="3277504.2618722687" type="priority" />
    <node id="node_448_end" x="615822.2038619188" y="3276812.3985801507" type="priority" />
    <node id="node_449_end" x="616208.9689763443" y="3276906.1084037083" type="priority" />
    <node id="node_451_end" x="618560.2555209607" y="3277721.464511146" type="priority" />
    <node id="node_455_end" x="614764.7669955699" y="3276721.0480682757" type="priority" />
    <node id="node_456_end" x="619468.9837922076" y="3278087.8589203265" type="priority" />
    <node id="node_458_start" x="618473.8180805084" y="3277691.4862080486" type="priority" />
    <node id="node_46_start" x="775250.5757285417" y="3296084.138345206" type="priority" />
    <node id="node_46_end" x="775101.5484715109" y="3296034.3188050142" type="priority" />
    <node id="node_461_end" x="617639.1069612703" y="3277457.6118500126" type="priority" />
    <node id="node_464_start" x="618904.1119665129" y="3277880.3146095164" type="priority" />
    <node id="node_466_start" x="617177.259366414" y="3277294.2326387055" type="priority" />
    <node id="node_47_start" x="777814.0209031792" y="3297384.0626595085" type="priority" />
    <node id="node_474_start" x="618557.5480217321" y="3277728.0335720894" type="priority" />
    <node id="node_474_end" x="618472.7118806454" y="3277694.9776338236" type="priority" />
    <node id="node_475_start" x="616207.9101845246" y="3276909.5985462554" type="priority" />
    <node id="node_475_end" x="616120.0396394951" y="3276882.3813202283" type="priority" />
    <node id="node_476_start" x="614871.2517368409" y="3276730.230868567" type="priority" />
    <node id="node_476_end" x="614764.7277499663" y="3276724.7262299554" type="priority" />
    <node id="node_478_start" x="615448.9934115837" y="3276805.2328944057" type="priority" />
    <node id="node_479_start" x="703498.8231577487" y="3286785.619497975" type="priority" />
    <node id="node_479_end" x="703439.9733927087" y="3286777.586852926" type="priority" />
    <node id="node_48_end" x="775040.7993432216" y="3296011.5526239583" type="priority" />
    <node id="node_480_start" x="703499.5807164039" y="3286782.081817557" type="priority" />
    <node id="node_487_start" x="669344.6588726921" y="3285723.337349945" type="priority" />
    <node id="node_487_end" x="669284.3095588685" y="3285701.7773527005" type="priority" />
    <node id="node_488_start" x="664817.0582392605" y="3283420.551388888" type="priority" />
    <node id="node_488_end" x="664741.4783973559" y="3283412.7652515974" type="priority" />
    <node id="node_49_end" x="774765.935516703" y="3295910.690523113" type="priority" />
    <node id="node_493_start" x="644360.6656108665" y="3281013.3484058795" type="priority" />
    <node id="node_493_end" x="644257.8255895597" y="3281015.6411470096" type="priority" />
    <node id="node_496_start" x="626646.5606686489" y="3280357.2795054927" type="priority" />
    <node id="node_496_end" x="626593.9877248501" y="3280343.9359939145" type="priority" />
    <node id="node_499_start" x="617994.7439241628" y="3277529.1658661263" type="priority" />
    <node id="node_499_end" x="617931.7000529265" y="3277510.936965372" type="priority" />
    <node id="node_500_start" x="616821.897917342" y="3277126.0476151314" type="priority" />
    <node id="node_500_end" x="616721.9106362937" y="3277087.7525309683" type="priority" />
    <node id="node_501_start" x="706509.8065152843" y="3287057.5683064833" type="priority" />
    <node id="node_504_end" x="609587.0140661217" y="3276175.964999428" type="priority" />
    <node id="node_505_end" x="612447.6639071925" y="3276676.323580971" type="priority" />
    <node id="node_506_end" x="613563.9413732517" y="3276697.9183075316" type="priority" />
    <node id="node_508_end" x="608156.0158261987" y="3275784.6210521935" type="priority" />
    <node id="node_509_start" x="612447.6339389298" y="3276683.3957245233" type="priority" />
    <node id="node_509_end" x="612296.7652255513" y="3276677.0886565354" type="priority" />
    <node id="node_51_end" x="774645.9017005571" y="3295878.775467069" type="priority" />
    <node id="node_510_end" x="613563.6343050813" y="3276708.0806000135" type="priority" />
    <node id="node_511_end" x="612296.9611484037" y="3276673.419833352" type="priority" />
    <node id="node_513_end" x="609584.3115512356" y="3276185.65951847" type="priority" />
    <node id="node_519_end" x="613309.3750258904" y="3276738.4077494047" type="priority" />
    <node id="node_52_start" x="775935.0366022332" y="3296368.441485604" type="priority" />
    <node id="node_520_end" x="609421.3498958049" y="3276176.278417274" type="priority" />
    <node id="node_521_start" x="608468.6231984553" y="3275926.257021555" type="priority" />
    <node id="node_522_start" x="612945.2910434231" y="3276728.950106849" type="priority" />
    <node id="node_523_start" x="607048.340459381" y="3275481.697630876" type="priority" />
    <node id="node_523_end" x="605348.8144428628" y="3275016.1238838607" type="priority" />
    <node id="node_524_start" x="607921.7808931882" y="3275720.6814575987" type="priority" />
    <node id="node_524_end" x="607814.2634838363" y="3275691.344745375" type="priority" />
    <node id="node_525_end" x="607982.856819627" y="3275737.3278455823" type="priority" />
    <node id="node_528_start" x="602216.3593218038" y="3274871.588276266" type="priority" />
    <node id="node_529_start" x="603938.9006015277" y="3274896.8384122746" type="priority" />
    <node id="node_529_end" x="603879.5296300325" y="3274892.488830496" type="priority" />
    <node id="node_53_start" x="771306.2781301846" y="3295851.8189076805" type="priority" />
    <node id="node_53_end" x="771278.3621889962" y="3295845.339871481" type="priority" />
    <node id="node_530_start" x="607671.6626864886" y="3275662.414645305" type="priority" />
    <node id="node_530_end" x="607615.1905758049" y="3275644.2704461305" type="priority" />
    <node id="node_531_start" x="604323.9936574685" y="3275003.3261511554" type="priority" />
    <node id="node_532_end" x="607674.2003546439" y="3275653.1095425356" type="priority" />