<?xml version="1.0" encoding="UTF-8"?>

<!-- generated on 2025-10-23 00:34:33.863083 by Eclipse SUMO randomTrips.py 23d18e1e9
<configuration>
    <net-file value="/home/sdai/harry/TeraSim/jupiter/wb/jupiter_wb.net.xml"/>
    <output-trip-file value="/home/sdai/harry/TeraSim/jupiter/wb/trips.trips.xml"/>
    <route-file value="/home/sdai/harry/TeraSim/jupiter/wb/pedestrians.rou.xml"/>
    <pedestrians value="True"/>
    <prefix value="pedestrian"/>
    <allow-fringe value="True"/>
    <seed value="9282"/>
    <random value="True"/>
    <validate value="True"/>
    <period value="0.35"/>
</configuration>
-->

<!-- generated on 2025-10-23 00:34:33 by Eclipse SUMO duarouter Version 1.23.1
<duarouterConfiguration xmlns:xsi="http://www.w3.org/2001/XMLSchema-instance" xsi:noNamespaceSchemaLocation="http://sumo.dlr.de/xsd/duarouterConfiguration.xsd">

    <input>
        <net-file value="/home/sdai/harry/TeraSim/jupiter/wb/jupiter_wb.net.xml"/>
        <route-files value="/home/sdai/harry/TeraSim/jupiter/wb/trips.trips.xml"/>
    </input>

    <output>
        <output-file value="/home/sdai/harry/TeraSim/jupiter/wb/pedestrians.rou.xml"/>
        <alternatives-output value="NUL"/>
    </output>

    <time>
        <begin value="0"/>
        <end value="3600.0"/>
    </time>

    <report>
        <no-warnings value="true"/>
        <ignore-errors value="true"/>
        <no-step-log value="true"/>
    </report>

</duarouterConfiguration>
-->

<routes xmlns:xsi="http://www.w3.org/2001/XMLSchema-instance" xsi:noNamespaceSchemaLocation="http://sumo.dlr.de/xsd/routes_file.xsd">
    <person id="pedestrian1" depart="0.35">
        <walk edges="155.0 154.0 167.0 157.0 150.0 161.0 165.0 152.0 160.0 171.0 195.0 184.0 merge_zone_14 193.0 196.0 192.0 177.0 181.0 merge_zone_12 174.0 176.0 178.0 182.0 191.0 merge_zone_13 183.0 204.0 205.0 202.0 201.0 212.0 208.0 215.0 213.0 224.0 221.0 223.0 222.0 229.0 merge_zone_17 228.0 502.0 501.0 480.0 331.0 323.0 324.0 321.0 325.0 334.0 332.0 336.0 merge_zone_25 337.0 340.0 344.0 343.0 347.0 342.0 351.0 352.0 353.0 merge_zone_27 355.0 366.0 371.0 363.0 369.0 370.0 373.0 380.0 374.0 379.0 375.0 386.0 382.0 387.0 390.0 392.0 394.0 395.0 398.0 399.0 403.0 493.0 400.0 414.0 410.0 413.0 408.0 425.0 419.0 421.0 426.0 420.0 436.0 437.0 432.0 433.0 merge_zone_34 434.0 468.0 446.0 451.0 472.0 458.0 447.0 465.0 470.0 473.0 443.0 449.0 477.0 441.0 450.0 445.0 476.0 767.0 768.0 766.0 506.0 512.0 505.0 509.0 516.0 504.0 507.0 508.0 525.0 538.0 524.0 532.0 530.0 545.0 775.0 523.0 543.0 551.0 550.0 534.0 529.0 540.0 533.0 549.0 528.0 526.0 553.0 566.0 568.0 577.0 564.0 580.0 561.0 554.0 573.0 559.0 574.0 557.0 563.0 562.0 560.0 592.0 609.0 601.0 593.0 613.0 614.0 597.0 587.0 611.0 589.0 584.0 606.0 603.0 585.0 621.0 599.0 596.0 598.0 583.0 640.0 630.0 641.0 merge_zone_48 638.0 635.0 632.0 629.0 648.0 625.0 626.0 633.0 655.0 656.0 649.0 652.0 661.0 651.0 653.0 866.0 867.0 865.0 873.0 871.0 876.0 875.0 889.0 merge_zone_60 888.0 883.0 881.0"/>
    </person>
    <person id="pedestrian2" depart="0.70">
        <walk edges="554.0 561.0 580.0 564.0 577.0 568.0 566.0 553.0"/>
    </person>
    <person id="pedestrian4" depart="1.40">
        <walk edges="143.0 142.0 789.0 833.0 834.0 829.0 merge_zone_62 907.0 793.0 141.0 140.0 790.0 791.0 158.0 164.0 239.0 153.0 166.0 149.0 155.0 154.0 167.0 157.0 150.0 161.0 165.0 152.0 160.0 171.0 195.0 184.0 merge_zone_14 193.0 196.0 192.0 177.0 181.0 merge_zone_12 174.0 176.0 178.0 182.0 191.0 merge_zone_13 183.0 204.0 205.0 202.0 201.0 212.0 208.0 215.0 213.0 224.0 221.0 223.0 222.0 229.0 merge_zone_17 228.0 502.0 501.0 480.0 331.0 323.0 324.0 321.0 325.0 334.0 332.0 336.0 merge_zone_25 337.0 340.0 344.0 343.0 347.0 342.0 351.0 352.0 353.0 merge_zone_27 355.0 366.0 371.0 363.0 369.0 370.0 373.0 380.0 374.0 379.0 376.0"/>
    </person>
    <person id="pedestrian5" depart="1.75">
        <walk edges="349.0 340.0 344.0 343.0 347.0 342.0 351.0 352.0 353.0 merge_zone_27 355.0 366.0 371.0 363.0 369.0 370.0 373.0 380.0 374.0 379.0 375.0 386.0 382.0 387.0 390.0 392.0 394.0 395.0 398.0 399.0 403.0 493.0 400.0 414.0 410.0 413.0 408.0 425.0 419.0 421.0 426.0 420.0 436.0 437.0 432.0 433.0 merge_zone_34 434.0 468.0 446.0 451.0 472.0 458.0 447.0 465.0 470.0 473.0 443.0 449.0 477.0 441.0 450.0 445.0 476.0 767.0 768.0 766.0 506.0 512.0 505.0 509.0 516.0 504.0 507.0 508.0 525.0 538.0 524.0 532.0 530.0 545.0 775.0 523.0 543.0 551.0 550.0 534.0 529.0 540.0 533.0 549.0 528.0 526.0 553.0 566.0 568.0 577.0 564.0 580.0 561.0 554.0 573.0 559.0 574.0 557.0 563.0 562.0 560.0 592.0 609.0 601.0 593.0 613.0 614.0 597.0 587.0 611.0 589.0 584.0 606.0 603.0 585.0 621.0 599.0 596.0 598.0 583.0 640.0 630.0 641.0 merge_zone_48 638.0 635.0 632.0 629.0 648.0 625.0 626.0 633.0 655.0 656.0 649.0 652.0 661.0 651.0 653.0 866.0 867.0 865.0 873.0 871.0 876.0 879.0"/>
    </person>
    <person id="pedestrian6" depart="2.10">
        <walk edges="573.0 554.0 561.0 580.0 564.0 577.0 568.0 566.0 553.0 526.0 528.0 549.0 533.0 540.0 529.0 534.0 550.0 551.0 543.0 523.0 775.0 545.0 530.0 532.0 524.0 538.0 525.0 508.0 507.0 504.0 516.0 509.0 505.0 512.0 506.0 766.0 768.0 767.0 476.0 445.0 450.0 441.0 477.0 449.0 443.0 473.0 470.0 465.0 447.0 458.0 472.0 451.0 446.0 468.0 434.0 merge_zone_34 433.0 432.0 437.0 436.0 420.0 426.0 421.0 419.0 425.0 408.0 413.0 410.0 414.0 400.0 493.0 403.0 399.0 398.0 395.0 394.0 392.0 390.0 387.0 382.0 386.0 375.0 379.0 374.0 380.0 373.0 370.0 369.0 363.0 371.0 366.0 355.0 merge_zone_27 353.0 352.0 351.0 342.0 347.0 343.0 344.0 340.0 337.0"/>
    </person>
    <person id="pedestrian7" depart="2.45">
        <walk edges="466.0 473.0 443.0 449.0 477.0 441.0 450.0 445.0 476.0 767.0 768.0 766.0 506.0 512.0 505.0 509.0 516.0 504.0 507.0 508.0 525.0 538.0 524.0 532.0 530.0 545.0 775.0 523.0 543.0 551.0 550.0 534.0 529.0 540.0 533.0 549.0 528.0 526.0 553.0 566.0 568.0 577.0 564.0 580.0 561.0 554.0 573.0 559.0 574.0 557.0 563.0 562.0 560.0 592.0 609.0 601.0 593.0 613.0 614.0 597.0 587.0 611.0 589.0 584.0 606.0 603.0"/>
    </person>
    <person id="pedestrian11" depart="3.85">
        <walk edges="580.0 564.0 577.0 568.0 566.0 553.0 526.0 528.0 549.0 533.0 540.0 529.0 534.0 550.0 551.0 543.0 523.0 775.0 545.0 530.0 532.0 524.0 538.0 525.0 508.0 507.0 504.0 516.0 509.0 505.0 512.0 506.0 766.0 768.0 767.0 476.0 445.0 478.0"/>
    </person>
    <person id="pedestrian14" depart="4.90">
        <walk edges="665.0 887.0 881.0 883.0 888.0 merge_zone_60 889.0 875.0 876.0 871.0 873.0 865.0 867.0 866.0 653.0 651.0 661.0 652.0 649.0 656.0 655.0 633.0 626.0 625.0 648.0 629.0 632.0 635.0 638.0 merge_zone_48 641.0 630.0 640.0 583.0 598.0 596.0 599.0 621.0 585.0 603.0 606.0 584.0 589.0 611.0 587.0 597.0 614.0 613.0 593.0 601.0 609.0 592.0 560.0 562.0 563.0 557.0 574.0 559.0 573.0 554.0 561.0 580.0 564.0 577.0 568.0 566.0 553.0 526.0 528.0 549.0 533.0 540.0 529.0 534.0 550.0 551.0 543.0 523.0 775.0 545.0 530.0 532.0 524.0 538.0 525.0 508.0 507.0 504.0 516.0 509.0 505.0 512.0 506.0 766.0 768.0 767.0 476.0 445.0 450.0 441.0 477.0 449.0 443.0 473.0 470.0 465.0 447.0 458.0 472.0 451.0 446.0 468.0 434.0 merge_zone_34 433.0 432.0 437.0 436.0 420.0 426.0 421.0 419.0 425.0 408.0 413.0 410.0 414.0 400.0 493.0 403.0 399.0 398.0 395.0 394.0 392.0 390.0 387.0 382.0 386.0 375.0 379.0 374.0 380.0 373.0 370.0 369.0 363.0 371.0 366.0 355.0 merge_zone_27 353.0 352.0 351.0 342.0 347.0 343.0 344.0 340.0 337.0 merge_zone_25 336.0 332.0 334.0 325.0 321.0 324.0 323.0 331.0 480.0 501.0 502.0 228.0 merge_zone_17 230.0"/>
    </person>
    <person id="pedestrian15" depart="5.25">
        <walk edges="223.0 222.0 229.0 merge_zone_17 228.0 502.0 501.0 480.0 331.0 323.0 324.0 321.0 325.0 334.0 332.0 336.0 merge_zone_25 337.0 340.0 344.0 343.0 347.0 342.0 351.0 352.0 353.0 merge_zone_27 355.0 366.0 371.0 363.0 369.0 370.0 373.0 380.0 374.0 379.0 375.0 386.0 382.0 387.0 390.0 392.0 394.0 395.0 398.0 399.0 403.0 493.0 400.0 414.0 410.0 413.0 408.0 425.0 419.0 421.0 426.0 420.0 436.0 437.0 432.0 433.0 merge_zone_34 434.0 468.0 446.0 451.0 472.0 458.0 447.0 465.0 470.0 473.0 443.0 449.0 477.0 441.0 450.0 445.0 476.0 767.0 768.0 766.0 506.0 512.0 505.0 509.0 516.0 504.0 507.0 508.0 525.0 538.0 524.0 532.0 530.0 545.0 775.0 523.0 543.0 551.0 550.0 534.0 529.0 540.0 533.0 549.0 528.0 526.0 553.0 566.0 568.0 577.0 564.0 580.0 561.0 554.0 573.0 559.0 574.0 557.0 563.0 562.0 560.0 592.0 609.0 622.0"/>
    </person>
    <person id="pedestrian17" depart="5.95">
        <walk edges="143.0 144.0 134.0 139.0 136.0 135.0 809.0 906.0"/>
    </person>
    <person id="pedestrian24" depart="8.40">
        <walk edges="699.0 688.0 664.0 663.0 675.0 672.0 673.0 665.0 887.0 881.0 883.0 888.0 merge_zone_60 889.0 875.0 876.0 871.0 873.0 865.0 867.0 866.0 653.0 651.0 661.0 652.0 649.0 656.0 655.0 633.0 626.0 625.0 648.0 629.0 632.0 635.0 638.0 merge_zone_48 641.0 630.0 640.0 583.0 598.0 596.0 599.0 621.0 585.0 603.0 606.0 584.0 589.0 611.0 587.0 597.0 614.0 613.0 593.0 601.0 609.0 592.0 560.0 562.0 563.0 557.0 574.0 559.0 573.0 554.0 561.0 580.0 564.0 577.0 568.0 566.0 553.0 526.0 528.0 549.0 533.0 540.0 529.0 534.0 550.0 551.0 543.0 523.0 775.0 545.0 530.0 532.0 524.0 538.0 525.0 508.0 507.0 504.0 516.0 509.0 505.0 512.0 506.0 766.0 768.0 767.0 476.0 445.0 450.0 441.0 477.0 449.0 443.0 473.0 470.0 465.0 447.0 458.0 472.0 451.0 446.0 468.0 434.0 merge_zone_34 433.0 432.0 437.0 436.0 420.0 426.0 421.0 419.0 425.0 408.0 413.0 410.0 414.0 400.0 493.0 403.0 399.0 398.0 395.0 394.0 392.0 390.0 387.0 382.0 386.0 375.0 379.0 374.0 380.0 373.0 370.0 369.0 363.0 371.0 366.0 355.0 merge_zone_27 353.0 352.0 351.0 342.0 347.0 343.0 344.0 340.0 337.0 merge_zone_25 336.0 332.0 334.0 325.0 321.0 324.0 323.0 331.0 480.0 501.0 502.0 228.0 merge_zone_17 229.0 222.0 223.0 221.0 224.0 213.0 215.0 208.0 212.0 201.0 202.0 205.0 204.0 183.0 merge_zone_13 191.0 182.0 178.0 176.0 174.0 merge_zone_12 181.0 177.0 192.0 196.0 193.0 merge_zone_14 184.0 195.0 171.0 160.0 152.0 165.0 161.0 150.0 157.0 167.0 154.0 155.0 149.0 166.0 153.0 239.0 164.0 158.0 791.0 790.0 140.0 141.0 793.0 907.0 merge_zone_62 829.0 834.0 833.0 789.0 142.0 143.0 144.0 134.0 139.0 136.0 135.0 809.0 906.0 904.0 merge_zone_61 813.0"/>
    </person>
    <person id="pedestrian26" depart="9.10">
        <walk edges="659.0 879.0 876.0 871.0 873.0 865.0 867.0 866.0 653.0 651.0 661.0 652.0 649.0 656.0 655.0 633.0 626.0 625.0 648.0 629.0 632.0 635.0 638.0 merge_zone_48 641.0 630.0 640.0 583.0 598.0 596.0 599.0 621.0 585.0 603.0 606.0 584.0 589.0 611.0 587.0 597.0 614.0 613.0 593.0 601.0 609.0 592.0 560.0 562.0 563.0 557.0 574.0 559.0 573.0 554.0 561.0 580.0 564.0 577.0 568.0 566.0 553.0 526.0 528.0 549.0 533.0 540.0 529.0 534.0 550.0 551.0 543.0 523.0 775.0 545.0 530.0 532.0 524.0 538.0 525.0 508.0 507.0 504.0 516.0 509.0 505.0 512.0 506.0 766.0 768.0 767.0 476.0 445.0 450.0 441.0 477.0 449.0 443.0 473.0 470.0 465.0 447.0 458.0 472.0 451.0 446.0 468.0 434.0 merge_zone_34 433.0 432.0 437.0 436.0 420.0 426.0 421.0 419.0 425.0 408.0 413.0 410.0 414.0 400.0 493.0 403.0 399.0 398.0 395.0"/>
    </person>
    <person id="pedestrian27" depart="9.45">
        <walk edges="628.0 633.0 626.0 625.0 648.0 629.0 632.0 635.0 638.0 merge_zone_48 641.0 630.0 640.0 583.0 598.0 596.0 599.0 621.0 585.0 603.0 606.0 584.0 589.0 611.0 587.0 597.0 614.0 613.0 593.0 601.0 609.0 592.0 560.0 562.0 563.0 557.0 574.0 559.0 573.0 554.0 561.0 580.0 564.0 577.0 568.0 566.0 553.0 526.0 528.0 549.0 533.0 540.0 529.0 534.0 550.0 551.0 543.0 523.0 775.0 545.0 530.0 532.0 524.0 538.0 525.0 508.0 507.0 504.0 516.0 509.0 505.0 512.0 506.0 766.0 768.0 767.0 476.0 445.0 450.0 441.0 477.0 449.0 443.0 473.0 470.0 461.0"/>
    </person>
    <person id="pedestrian28" depart="9.80">
        <walk edges="77.0 68.0"/>
    </person>
    <person id="pedestrian29" depart="10.15">
        <walk edges="690.0 709.0 708.0 701.0 695.0 699.0 688.0 664.0 663.0 675.0 672.0 673.0 665.0 887.0 881.0 883.0 888.0 merge_zone_60 889.0 875.0 876.0 871.0 873.0 865.0 867.0 866.0 653.0 651.0 661.0 652.0 649.0 656.0 655.0 633.0 626.0 625.0 648.0 629.0 632.0 635.0 638.0 merge_zone_48 641.0 630.0 640.0 583.0 598.0 596.0 599.0 621.0 585.0 603.0 606.0 584.0 589.0 611.0 587.0 597.0 614.0 613.0 593.0 601.0 609.0 592.0 560.0 562.0 563.0 557.0 574.0 559.0 573.0 554.0 561.0 580.0 564.0 577.0 568.0 566.0 553.0 526.0 528.0 549.0 533.0 540.0 529.0 534.0 550.0 551.0 543.0 523.0 775.0 545.0 530.0 532.0 524.0 538.0 525.0 508.0 507.0 504.0 516.0 509.0 505.0 512.0 506.0 766.0 768.0 767.0 476.0 445.0 450.0 441.0 477.0 449.0 443.0 473.0 470.0 465.0 447.0 458.0 472.0 451.0 446.0 468.0 434.0 merge_zone_34 433.0 432.0 437.0 436.0 420.0 426.0 421.0 419.0 425.0 408.0 413.0 410.0 414.0 417.0"/>
    </person>
    <person id="pedestrian30" depart="10.50">
        <walk edges="561.0 554.0 573.0 559.0 574.0 557.0 563.0 562.0 560.0 592.0 609.0 601.0 593.0 613.0 614.0 597.0 587.0 611.0 589.0 584.0 606.0 603.0 585.0 612.0"/>
    </person>
    <person id="pedestrian33" depart="11.55">
        <walk edges="815.0 769.0 819.0 820.0 812.0 811.0 137.0 138.0 235.0 813.0"/>
    </person>
    <person id="pedestrian36" depart="12.60">
        <walk edges="437.0 436.0 420.0 426.0 421.0 419.0 425.0 408.0 413.0 410.0 414.0 400.0 493.0 403.0 399.0 398.0 395.0 394.0 392.0 390.0 387.0 382.0 386.0 375.0 379.0 374.0 380.0 373.0 370.0 369.0 363.0 371.0 366.0 355.0 merge_zone_27 353.0 352.0 351.0 342.0 347.0 343.0 344.0 340.0 337.0 merge_zone_25 338.0 339.0"/>
    </person>
    <person id="pedestrian37" depart="12.95">
        <walk edges="407.0 399.0 398.0 395.0 394.0 392.0 390.0 387.0 382.0 386.0 375.0 379.0 374.0 380.0 373.0 370.0 369.0 363.0 371.0 366.0 355.0 merge_zone_27 353.0 352.0 351.0 342.0 347.0 343.0 344.0 340.0 337.0 merge_zone_25 336.0 332.0 334.0 325.0 321.0 324.0 323.0 331.0 480.0 501.0 502.0 228.0 merge_zone_17 229.0 222.0 223.0 221.0 224.0 213.0 215.0 208.0 212.0 201.0 202.0 205.0 204.0 183.0 merge_zone_13 191.0 182.0 178.0 176.0 174.0 merge_zone_12 181.0 177.0 192.0 196.0 193.0 merge_zone_14 184.0 195.0 171.0 160.0 152.0 165.0 161.0"/>
    </person>
    <person id="pedestrian39" depart="13.65">
        <walk edges="222.0 229.0 merge_zone_17 228.0 502.0 501.0 480.0 331.0 323.0 324.0"/>
    </person>
    <person id="pedestrian40" depart="14.00">
        <walk edges="merge_zone_55 797.0 798.0 772.0 771.0 785.0 310.0 261.0 260.0 301.0 291.0 merge_zone_23 308.0 309.0 merge_zone_56"/>
    </person>
    <person id="pedestrian42" depart="14.70">
        <walk edges="505.0 509.0 516.0 504.0 507.0 508.0 525.0 538.0 524.0 532.0 530.0 545.0 775.0 523.0 543.0 551.0 550.0 534.0 529.0 540.0 533.0 549.0 528.0 526.0 553.0 566.0 568.0 577.0 564.0 580.0 561.0 554.0 573.0 559.0 574.0 557.0 563.0 562.0 560.0 592.0 609.0 601.0 593.0 613.0 614.0 597.0 587.0 611.0 589.0 584.0 606.0 603.0 585.0 621.0 599.0 596.0 598.0 583.0 640.0 630.0 641.0 merge_zone_48 638.0 635.0 632.0 629.0 648.0 625.0 626.0 633.0 655.0 656.0 649.0 652.0 661.0 651.0 653.0 866.0 867.0 865.0 873.0 871.0 876.0 875.0 889.0"/>
    </person>
    <person id="pedestrian44" depart="15.40">
        <walk edges="614.0 613.0 593.0 601.0 609.0 592.0 560.0 562.0 563.0 557.0 574.0 559.0 573.0 554.0 561.0 580.0 564.0 577.0 568.0 566.0 553.0 526.0 528.0 549.0 533.0 540.0 529.0 534.0 550.0 551.0 543.0 523.0 775.0 545.0 530.0 532.0 524.0 538.0 525.0 508.0 507.0 504.0 516.0 509.0 505.0 512.0 506.0 766.0 768.0 767.0 476.0 445.0 450.0 441.0 477.0 449.0 443.0 473.0 470.0 465.0 447.0 458.0 472.0 451.0 446.0 468.0 434.0 merge_zone_34 433.0 432.0 437.0 436.0 420.0 426.0 421.0 419.0 425.0 408.0 413.0 410.0 414.0 400.0 493.0 403.0 399.0 398.0 395.0 394.0 392.0 390.0 387.0 382.0 386.0 375.0 379.0 374.0 380.0 373.0 370.0 369.0 363.0 371.0 366.0 355.0 merge_zone_27 353.0 352.0 351.0 342.0 347.0 343.0 344.0 340.0 337.0 merge_zone_25 336.0 332.0 334.0 325.0 321.0 324.0 323.0 331.0 480.0 501.0 502.0 228.0 merge_zone_17 229.0 222.0 223.0 221.0 224.0 213.0 215.0 208.0 212.0 201.0 202.0 205.0 204.0 183.0 merge_zone_13 191.0 182.0 178.0 176.0 174.0 merge_zone_12 181.0 177.0 192.0 196.0 193.0 merge_zone_14 184.0 195.0 171.0 160.0 152.0 165.0 161.0 150.0 157.0 167.0 154.0 155.0 149.0 166.0 153.0 239.0"/>
    </person>
    <person id="pedestrian53" depart="18.55">
        <walk edges="223.0 222.0 229.0 merge_zone_17 228.0 502.0 501.0 480.0 331.0 323.0 324.0 321.0 325.0 334.0 332.0 336.0 merge_zone_25 337.0 340.0 344.0 343.0 347.0 342.0 351.0 352.0 353.0 merge_zone_27 355.0 366.0 371.0 363.0 369.0 370.0 373.0 380.0 374.0 379.0 375.0 386.0 382.0 387.0 390.0 392.0 394.0 395.0 398.0 399.0 403.0 493.0 400.0 414.0 410.0 413.0 408.0 425.0 419.0 421.0 426.0 420.0 436.0 437.0 432.0 433.0 merge_zone_34 434.0 468.0 446.0 451.0 472.0 458.0 447.0 465.0 470.0 473.0 443.0 449.0 477.0 441.0 450.0 445.0 476.0 767.0 768.0 766.0 506.0 512.0 505.0 509.0 516.0 504.0 507.0 508.0 525.0 538.0 524.0 532.0 530.0 545.0 775.0 523.0 543.0 551.0 550.0 534.0 529.0 540.0 533.0 549.0 528.0 526.0 553.0 566.0 568.0 577.0 564.0 580.0 561.0 554.0 573.0 559.0 574.0 557.0 563.0 562.0 560.0 592.0 609.0 601.0 593.0 613.0 614.0 597.0 587.0 611.0 589.0 584.0 606.0 603.0 585.0 621.0 599.0 596.0 598.0 583.0 640.0 630.0 641.0 merge_zone_48 638.0 635.0 632.0 629.0 648.0 625.0 626.0 633.0 655.0 656.0 649.0 652.0 661.0 651.0 653.0 866.0 867.0 865.0 873.0 871.0 876.0 875.0 889.0 892.0"/>
    </person>
    <person id="pedestrian55" depart="19.25">
        <walk edges="551.0 543.0 523.0 775.0 545.0 530.0 532.0 524.0 538.0 525.0 508.0 507.0 504.0 516.0 509.0 505.0 512.0 506.0 766.0 768.0 767.0 476.0 445.0 450.0 441.0 477.0 449.0 443.0 473.0 470.0 465.0 447.0 458.0 472.0 451.0 446.0 468.0 434.0 merge_zone_34 433.0 432.0 437.0 436.0 420.0 426.0 421.0 419.0 425.0 408.0 413.0 410.0 414.0 400.0 493.0 403.0 399.0 398.0 395.0 394.0 392.0 390.0 387.0 382.0 386.0 375.0 379.0 374.0 380.0 373.0 370.0 369.0 363.0 371.0 366.0 355.0 merge_zone_27 353.0 352.0 351.0 342.0 347.0 343.0 344.0 340.0 337.0 merge_zone_25 336.0 332.0 334.0 325.0 321.0 324.0 323.0 331.0 480.0 501.0 502.0 228.0 merge_zone_17 229.0 222.0 223.0 221.0 224.0 213.0 218.0 214.0"/>
    </person>
    <person id="pedestrian57" depart="19.95">
        <walk edges="235.0 merge_zone_61 904.0 906.0 809.0 135.0 136.0 139.0 134.0 144.0 143.0 142.0 789.0 833.0 834.0 829.0 merge_zone_62 907.0 793.0 141.0 140.0 790.0 791.0 158.0 164.0 239.0 153.0 166.0 149.0 155.0 154.0 167.0 157.0 150.0 161.0 165.0 152.0 160.0 171.0 195.0 184.0 merge_zone_14 193.0 253.0"/>
    </person>
    <person id="pedestrian59" depart="20.65">
        <walk edges="576.0 559.0 574.0 557.0 563.0 562.0 560.0 592.0 609.0 601.0 593.0 613.0 614.0 597.0 587.0 611.0 589.0 584.0 606.0 603.0 585.0 621.0 599.0 596.0 598.0 583.0 640.0 630.0 641.0 merge_zone_48 638.0 635.0 632.0 629.0 648.0 625.0 626.0 633.0 655.0 656.0 649.0 652.0"/>
    </person>
    <person id="pedestrian61" depart="21.35">
        <walk edges="545.0 775.0 523.0 543.0 551.0 550.0 534.0 529.0 540.0 533.0 549.0 528.0 526.0 553.0 566.0 568.0 577.0 564.0 580.0 561.0 554.0 573.0 559.0 574.0 557.0 563.0 562.0 560.0 592.0 609.0 601.0 593.0 613.0 614.0 597.0 587.0 611.0 589.0 584.0 606.0 603.0 585.0 621.0 599.0 596.0 598.0 583.0 640.0 630.0 641.0 merge_zone_48 638.0 635.0 632.0 629.0 648.0 625.0 626.0 633.0 655.0 656.0 649.0 652.0 661.0 651.0 653.0 866.0 867.0 865.0 873.0 871.0 876.0 875.0 889.0 892.0"/>
    </person>
    <person id="pedestrian63" depart="22.05">
        <walk edges="245.0 124.0 121.0 120.0 122.0 240.0 95.0 111.0 103.0 116.0 118.0"/>
    </person>
    <person id="pedestrian64" depart="22.40">
        <walk edges="158.0 164.0 239.0 153.0 166.0 149.0 155.0 154.0 167.0 157.0 150.0 161.0 165.0 152.0 160.0 171.0 195.0 184.0 merge_zone_14 193.0 196.0 192.0 177.0 181.0 merge_zone_12 174.0 176.0 178.0 182.0 191.0 merge_zone_13 183.0 204.0 205.0 202.0 201.0 212.0 208.0 215.0 213.0 224.0 221.0 223.0 222.0 229.0 merge_zone_17 228.0 502.0 501.0 480.0 331.0 323.0 324.0 321.0 325.0 334.0 332.0 336.0 merge_zone_25 337.0 340.0 344.0 343.0 347.0 342.0 351.0 352.0 353.0 merge_zone_27 355.0 366.0 371.0 363.0 369.0 370.0 373.0 380.0 374.0 379.0 375.0 386.0 382.0 387.0 390.0 392.0 394.0 395.0 398.0 399.0 403.0 493.0 400.0 414.0 410.0 413.0 408.0 425.0 419.0 421.0 426.0 420.0 436.0 437.0 432.0 433.0 merge_zone_34 434.0 468.0 446.0 451.0 472.0 458.0 447.0 465.0 470.0 473.0 443.0 449.0 477.0 441.0 450.0 445.0 476.0 767.0 768.0 766.0 506.0 512.0 505.0 509.0 516.0 504.0 507.0 508.0 525.0 538.0 524.0 532.0 530.0 545.0 775.0 523.0 543.0 551.0 550.0 534.0 529.0 540.0 533.0 549.0 528.0 526.0 553.0 566.0 568.0 577.0 564.0 580.0 561.0 554.0 573.0 559.0 574.0 557.0 563.0 562.0 560.0 592.0 609.0 601.0 593.0 613.0 614.0 597.0 587.0 611.0 589.0 584.0 606.0 603.0 585.0 621.0 599.0 596.0 598.0 583.0 640.0 630.0 641.0 merge_zone_48 638.0 635.0 632.0 629.0 648.0 625.0 626.0 633.0 655.0 656.0 649.0 652.0 661.0 651.0 653.0 866.0 867.0 865.0 873.0 871.0 876.0 875.0 889.0 merge_zone_60 888.0 883.0 881.0 887.0 665.0 673.0 672.0 675.0 663.0 664.0 688.0 699.0 695.0 701.0 708.0 709.0 690.0 692.0 694.0 678.0 697.0"/>
    </person>
    <person id="pedestrian65" depart="22.75">
        <walk edges="626.0 625.0 648.0 629.0 632.0 635.0 638.0 merge_zone_48 641.0 630.0 640.0 583.0 598.0 596.0 599.0 621.0 585.0 603.0 606.0 584.0 589.0 611.0 587.0 597.0 614.0 613.0 593.0 601.0 609.0 592.0 560.0 562.0 563.0 557.0 574.0 559.0 573.0 554.0 561.0 580.0 564.0 577.0 568.0 566.0 553.0 526.0 528.0 549.0 533.0 540.0 529.0 534.0 550.0 551.0 543.0 523.0 775.0 545.0 530.0 532.0 524.0 538.0 525.0 508.0 507.0 504.0 516.0 509.0 505.0 512.0 506.0 766.0 768.0 767.0 476.0 445.0 450.0 441.0 477.0 449.0 443.0"/>
    </person>
    <person id="pedestrian67" depart="23.45">
        <walk edges="344.0 340.0 337.0 merge_zone_25 336.0 332.0 334.0 325.0 321.0 324.0 323.0 331.0 480.0 501.0 502.0 228.0 merge_zone_17 229.0 222.0 223.0 221.0 224.0 213.0 215.0 208.0 212.0 201.0 202.0 205.0 204.0 183.0 merge_zone_13 191.0 182.0 178.0 176.0 174.0 merge_zone_12 181.0 177.0 192.0 196.0 193.0 merge_zone_14 184.0 195.0 171.0 160.0 152.0 165.0 161.0 150.0 157.0 167.0 154.0 155.0 149.0 166.0 153.0 239.0 164.0 158.0 791.0 790.0 140.0 141.0 793.0 907.0 merge_zone_62 911.0"/>
    </person>
    <person id="pedestrian72" depart="25.20">
        <walk edges="366.0 371.0 363.0 369.0 370.0 373.0 380.0 374.0 379.0 375.0 386.0 382.0 387.0 390.0 392.0 394.0 395.0 398.0 399.0 403.0 493.0 400.0 414.0 410.0 413.0 415.0 412.0"/>
    </person>
    <person id="pedestrian73" depart="25.55">
        <walk edges="400.0 414.0 410.0 413.0 408.0 425.0 419.0 421.0 426.0 420.0 436.0 437.0 432.0 433.0 merge_zone_34 434.0 468.0 446.0 451.0 472.0"/>
    </person>
    <person id="pedestrian74" depart="25.90">
        <walk edges="906.0 809.0 135.0 136.0 139.0 134.0 144.0 143.0 142.0 789.0 833.0 834.0 829.0 merge_zone_62 907.0 793.0 141.0 140.0 790.0 791.0 158.0 164.0 239.0 153.0 166.0 149.0 155.0 154.0 167.0 157.0 150.0 161.0 165.0 152.0 160.0 171.0 195.0 184.0 merge_zone_14 193.0 196.0 192.0 177.0 181.0 merge_zone_12 174.0 176.0 178.0 182.0 191.0 merge_zone_13 183.0 204.0 205.0 202.0 201.0 212.0 208.0 215.0 213.0 224.0 221.0 223.0 222.0 229.0 merge_zone_17 228.0 502.0 501.0 480.0 331.0 323.0 324.0 321.0 325.0 334.0 332.0 336.0 merge_zone_25 337.0 340.0 344.0 343.0 347.0 342.0 351.0 352.0 353.0 merge_zone_27 355.0 366.0 371.0 363.0 369.0 370.0 373.0 380.0 374.0 379.0 375.0 386.0 382.0 387.0 390.0 392.0 394.0 395.0 398.0 399.0 403.0 493.0 400.0 414.0 410.0 413.0 408.0 425.0 419.0 421.0 426.0 420.0 436.0 437.0 432.0 433.0 merge_zone_34 434.0 468.0 446.0 451.0 472.0 458.0 447.0 465.0 470.0 473.0 443.0 449.0 477.0 441.0 450.0 445.0 476.0 767.0 768.0 766.0 506.0 512.0 505.0 509.0 516.0 504.0 507.0 508.0 525.0 538.0 524.0 532.0 530.0 545.0 775.0 523.0 543.0 551.0 550.0 534.0 529.0 540.0 533.0 549.0 528.0 526.0 553.0 566.0 568.0 577.0 564.0 580.0 561.0 554.0 573.0 559.0 574.0 557.0 563.0 562.0 560.0 592.0 609.0 601.0 593.0 613.0 614.0 597.0 587.0 611.0 589.0 584.0 606.0 603.0 585.0 621.0 599.0 596.0 598.0 583.0 640.0 630.0 641.0 merge_zone_48 638.0 635.0 632.0 629.0"/>
    </person>
    <person id="pedestrian75" depart="26.25">
        <walk edges="640.0 583.0 598.0 596.0 599.0 621.0 585.0 603.0 606.0 584.0 589.0 611.0 587.0 597.0 614.0 613.0 593.0 601.0 609.0 592.0 560.0 562.0 571.0 582.0"/>
    </person>
    <person id="pedestrian76" depart="26.60">
        <walk edges="204.0 205.0 202.0 201.0 212.0 208.0 215.0 213.0 224.0 221.0 223.0 225.0"/>
    </person>
    <person id="pedestrian80" depart="28.00">
        <walk edges="875.0 876.0 871.0 873.0 865.0 867.0 866.0 653.0 651.0 661.0 652.0 649.0 656.0 655.0 633.0 626.0 625.0 648.0 629.0 632.0 635.0 638.0 merge_zone_48 641.0 630.0 640.0 583.0 598.0 596.0 599.0 621.0 585.0 603.0 606.0 584.0 589.0 611.0 587.0 597.0 614.0 613.0 593.0 601.0 609.0 592.0 560.0 562.0 563.0 557.0 574.0 559.0 573.0 554.0 561.0 580.0 564.0 577.0 568.0 566.0 553.0 526.0 528.0 549.0 533.0 540.0 529.0 534.0 550.0 551.0 543.0 523.0 775.0 545.0 530.0 532.0 524.0 538.0 525.0 508.0 507.0 504.0 516.0 509.0 505.0 512.0 506.0 766.0 768.0 767.0 476.0 445.0 450.0 441.0 477.0 449.0 443.0 473.0 470.0 465.0 447.0 458.0 472.0 451.0 446.0 468.0 434.0 merge_zone_34 433.0 432.0 437.0 436.0 420.0 426.0 421.0 419.0 425.0 408.0 413.0 410.0 414.0 400.0 493.0 403.0 399.0 398.0 395.0 394.0 392.0 390.0 387.0 382.0 386.0 375.0 379.0 374.0 380.0 373.0 370.0 369.0 363.0 371.0 366.0 355.0"/>
    </person>
    <person id="pedestrian85" depart="29.75">
        <walk edges="790.0 791.0 158.0 164.0 239.0 153.0 166.0 149.0 155.0 154.0 167.0 157.0 150.0 161.0 165.0 152.0 160.0 171.0 195.0 184.0 merge_zone_14 193.0 196.0 192.0 177.0 181.0 172.0 194.0"/>
    </person>
    <person id="pedestrian86" depart="30.10">
        <walk edges="390.0 392.0 394.0 395.0 398.0 399.0 403.0 493.0 400.0 414.0 410.0 413.0 408.0 425.0 419.0 421.0 426.0 420.0 436.0 437.0 432.0 433.0 merge_zone_34 434.0 468.0 446.0 451.0 472.0 458.0 447.0 465.0 470.0 473.0 443.0 449.0 477.0 441.0 450.0 445.0 476.0 767.0 768.0 766.0 506.0 512.0 505.0 509.0 516.0 504.0 507.0 508.0 525.0 538.0 524.0 532.0 530.0 545.0 775.0 523.0 543.0 551.0 550.0 534.0 529.0 540.0 533.0 549.0 528.0 526.0 553.0 566.0 568.0 577.0 564.0 580.0 561.0 554.0 573.0 559.0 574.0 557.0 563.0 562.0 560.0 592.0 609.0 601.0 594.0"/>
    </person>
    <person id="pedestrian88" depart="30.80">
        <walk edges="239.0 153.0 166.0 149.0 155.0 154.0 167.0 157.0 150.0 161.0 165.0 152.0 160.0 171.0 195.0 184.0 merge_zone_14 193.0 196.0 192.0 177.0 181.0 merge_zone_12 174.0 176.0 178.0 182.0 191.0 merge_zone_13 183.0 204.0 205.0 202.0 201.0 212.0 208.0 215.0 213.0 224.0 221.0 223.0 222.0 229.0 merge_zone_17 228.0 502.0 501.0 480.0 331.0 323.0 324.0 321.0 325.0 334.0 332.0 336.0 merge_zone_25 337.0 349.0 341.0"/>
    </person>
    <person id="pedestrian89" depart="31.15">
        <walk edges="330.0 323.0 324.0 321.0 325.0 334.0 332.0 336.0 merge_zone_25 337.0 340.0 344.0 343.0 347.0 342.0 351.0 352.0 353.0 merge_zone_27 355.0 366.0 371.0 363.0 369.0 370.0 373.0 380.0 374.0 379.0 375.0 386.0 382.0 387.0 390.0 392.0 394.0 395.0 398.0 399.0 403.0 493.0 400.0 417.0"/>
    </person>
    <person id="pedestrian90" depart="31.50">
        <walk edges="645.0 638.0 merge_zone_48 641.0 630.0 640.0 583.0 598.0 596.0 599.0 621.0 585.0 603.0 606.0 584.0 589.0 611.0 587.0 597.0 614.0 613.0 593.0 601.0 609.0 592.0 560.0 562.0 563.0 557.0 574.0 559.0 573.0 554.0 561.0 580.0 564.0 577.0 568.0 566.0 553.0 526.0 528.0 549.0 533.0 540.0 529.0 534.0 550.0 551.0 543.0 523.0 775.0 545.0 530.0 532.0 524.0 538.0 525.0 508.0 507.0 504.0 516.0 509.0 505.0 512.0 506.0 766.0 768.0 767.0 476.0 445.0 450.0 441.0 477.0 449.0 443.0 473.0 470.0 465.0 447.0 458.0 472.0 451.0 446.0 468.0 434.0 merge_zone_34 433.0 432.0 437.0 436.0 420.0 426.0 421.0 419.0 425.0 408.0 413.0 410.0 414.0 400.0 493.0 403.0 399.0 398.0 395.0 394.0"/>
    </person>
    <person id="pedestrian92" depart="32.20">
        <walk edges="194.0 172.0 merge_zone_12 174.0 176.0 178.0 182.0 191.0 merge_zone_13 183.0 204.0 205.0 202.0 201.0 212.0 208.0 215.0 213.0 224.0 221.0 223.0 222.0 229.0 merge_zone_17 228.0 502.0 501.0"/>
    </person>
    <person id="pedestrian93" depart="32.55">
        <walk edges="628.0 633.0 626.0 625.0 648.0 629.0 632.0 635.0 638.0 merge_zone_48 641.0 630.0 640.0 583.0 598.0 596.0 599.0 621.0 585.0 603.0 606.0 584.0 589.0 611.0 587.0 597.0 614.0 613.0 593.0 601.0 609.0 592.0 560.0 562.0 563.0 557.0 574.0 559.0 573.0 554.0 561.0 580.0 564.0 577.0 568.0 566.0 553.0 526.0 528.0 549.0 533.0 540.0 529.0 534.0 550.0 551.0 543.0 523.0 775.0 545.0 530.0 532.0 524.0 538.0 525.0 508.0 507.0 504.0 516.0 509.0 505.0 512.0 506.0 766.0 768.0 767.0 476.0 445.0 450.0 441.0 477.0 449.0 443.0 473.0 470.0 465.0 447.0 458.0 472.0 451.0 446.0 468.0 434.0 merge_zone_34 433.0 432.0 437.0 436.0 420.0 426.0 421.0 419.0 425.0 408.0 413.0 410.0 414.0 400.0 493.0 403.0 399.0 398.0 395.0 394.0 392.0 390.0 387.0 382.0 386.0 375.0 379.0 374.0 380.0 373.0 370.0 369.0 363.0 371.0 366.0 355.0 merge_zone_27 353.0 352.0 351.0 342.0 347.0 343.0 344.0 340.0 337.0 merge_zone_25 336.0 332.0 334.0 325.0 321.0 324.0 323.0 331.0 480.0 501.0 502.0 228.0 merge_zone_17 229.0 222.0 223.0 221.0 224.0 213.0 215.0 208.0 212.0 201.0 202.0 205.0 204.0 183.0 merge_zone_13 191.0 182.0 178.0 176.0 174.0 merge_zone_12 181.0 177.0 192.0 196.0 193.0 merge_zone_14 184.0 195.0 171.0 160.0 152.0"/>
    </person>
    <person id="pedestrian94" depart="32.90">
        <walk edges="358.0 357.0 342.0 347.0 343.0 344.0 340.0 337.0 merge_zone_25 336.0 332.0 334.0 325.0 321.0 324.0 323.0 331.0 480.0 479.0"/>
    </person>
    <person id="pedestrian95" depart="33.25">