<?xml version="1.0" encoding="UTF-8"?>

<!-- generated on 2025-10-19 17:33:43 by Eclipse SUMO netconvert Version 1.23.1
<netconvertConfiguration xmlns:xsi="http://www.w3.org/2001/XMLSchema-instance" xsi:noNamespaceSchemaLocation="http://sumo.dlr.de/xsd/netconvertConfiguration.xsd">

    <input>
        <node-files value="/home/sdai/harry/TeraSim/jupiter/wb/jupiter_wb_tiles/tile_0129/tile_0129.nod.xml"/>
        <edge-files value="/home/sdai/harry/TeraSim/jupiter/wb/jupiter_wb_tiles/tile_0129/tile_0129.edg.xml"/>
        <connection-files value="/home/sdai/harry/TeraSim/jupiter/wb/jupiter_wb_tiles/tile_0129/tile_0129.con.xml"/>
    </input>

    <output>
        <output-file value="/home/sdai/harry/TeraSim/jupiter/wb/jupiter_wb_tiles/tile_0129/tile_0129.net.xml"/>
        <output.street-names value="true"/>
        <output.original-names value="true"/>
    </output>

    <processing>
        <geometry.remove value="false"/>
        <geometry.min-dist value="0.5"/>
        <edges.join value="false"/>
    </processing>

    <junctions>
        <no-internal-links value="false"/>
        <no-turnarounds value="true"/>
        <junctions.join value="true"/>
        <junctions.join-dist value="10"/>
        <junctions.corner-detail value="5"/>
        <junctions.internal-link-detail value="5"/>
        <junctions.limit-turn-speed value="5.5"/>
        <rectangular-lane-cut value="true"/>
        <check-lane-foes.all value="true"/>
    </junctions>

</netconvertConfiguration>
-->

<net version="1.20" junctionCornerDetail="5" junctionLinkDetail="5" rectangularLaneCut="true" limitTurnSpeed="5.50" checkLaneFoesAll="1" xmlns:xsi="http://www.w3.org/2001/XMLSchema-instance" xsi:noNamespaceSchemaLocation="http://sumo.dlr.de/xsd/net_file.xsd">

    <location netOffset="-731614.50,-3287176.08" convBoundary="0.00,0.00,9155.28,1550.16" origBoundary="0.00,0.00,740769.78,3288726.24" projParameter="!"/>

    <edge id=":j_merge_end_12_0" function="internal">
        <lane id=":j_merge_end_12_0_0" index="0" speed="13.89" length="38.48" width="3.66" shape="1034.84,78.58 1024.69,77.15 1015.85,74.39 1007.00,71.64 996.85,70.22"/>
        <lane id=":j_merge_end_12_0_1" index="1" speed="13.89" length="38.48" width="3.66" shape="1034.94,74.92 996.75,73.88"/>
        <lane id=":j_merge_end_12_0_2" index="2" speed="13.89" length="38.48" width="3.66" shape="1035.04,71.26 996.85,70.22"/>
    </edge>
    <edge id=":j_merge_end_14_0" function="internal">
        <lane id=":j_merge_end_14_0_0" index="0" speed="13.89" length="35.25" width="3.66" shape="2654.23,124.48 2643.88,123.03 2634.98,120.26 2627.03,117.52 2619.49,116.17"/>
        <lane id=":j_merge_end_14_0_1" index="1" speed="13.89" length="35.25" width="3.66" shape="2654.33,120.82 2619.39,119.83"/>
        <lane id=":j_merge_end_14_0_2" index="2" speed="13.89" length="35.25" width="3.66" shape="2654.44,117.16 2619.49,116.17"/>
    </edge>
    <edge id=":j_merge_start_12_0" function="internal">
        <lane id=":j_merge_start_12_0_0" index="0" speed="13.89" length="78.31" width="3.66" shape="1182.67,82.68 1104.39,80.48"/>
    </edge>
    <edge id=":j_merge_start_12_1" function="internal">
        <lane id=":j_merge_start_12_1_0" index="0" speed="13.89" length="78.39" width="3.66" shape="1182.85,78.95 1104.49,76.82"/>
        <lane id=":j_merge_start_12_1_1" index="1" speed="13.89" length="78.39" width="3.66" shape="1182.95,75.29 1104.59,73.16"/>
    </edge>
    <edge id=":j_merge_start_14_0" function="internal">
        <lane id=":j_merge_start_14_0_0" index="0" speed="13.89" length="65.30" width="3.66" shape="2782.38,127.84 2717.11,126.29"/>
    </edge>
    <edge id=":j_merge_start_14_1" function="internal">
        <lane id=":j_merge_start_14_1_0" index="0" speed="13.89" length="65.25" width="3.66" shape="2782.44,124.50 2717.21,122.63"/>
        <lane id=":j_merge_start_14_1_1" index="1" speed="13.89" length="65.25" width="3.66" shape="2782.54,120.84 2717.32,118.97"/>
    </edge>
    <edge id=":junction_11_0" function="internal">
        <lane id=":junction_11_0_0" index="0" speed="13.89" length="11.71" width="3.66" shape="6167.09,14.78 6164.05,14.12 6161.66,13.75 6159.09,13.51 6155.50,13.26"/>
    </edge>
    <edge id=":junction_11_1" function="internal">
        <lane id=":junction_11_1_0" index="0" speed="13.89" length="11.56" width="3.66" shape="6167.24,10.61 6155.76,9.61"/>
        <lane id=":junction_11_1_1" index="1" speed="13.89" length="11.56" width="3.66" shape="6167.58,6.96 6156.02,5.96"/>
    </edge>
    <edge id=":junction_72_0" function="internal">
        <lane id=":junction_72_0_0" index="0" speed="13.89" length="28.30" width="3.66" shape="6487.25,137.19 6479.58,135.02 6471.65,133.20 6464.59,132.12 6459.54,132.18"/>
    </edge>
    <edge id=":junction_72_1" function="internal">
        <lane id=":junction_72_1_0" index="0" speed="13.89" length="28.93" width="3.66" shape="6487.25,137.19 6459.87,127.84"/>
    </edge>
    <edge id=":junction_73_0" function="internal">
        <lane id=":junction_73_0_0" index="0" disallow="all" speed="13.89" length="39.12" width="3.66" shape="6646.77,175.82 6634.61,171.38 6624.91,168.25 6616.79,166.11 6609.35,164.64"/>
        <lane id=":junction_73_0_1" index="1" speed="13.89" length="39.84" width="3.66" shape="6648.07,172.40 6635.66,167.87 6625.74,164.69 6617.46,162.52 6609.96,161.03"/>
    </edge>
    <edge id=":junction_73_2" function="internal">
        <lane id=":junction_73_2_0" index="0" speed="13.89" length="26.44" width="3.66" shape="6649.38,168.98 6624.67,159.54"/>
        <lane id=":junction_73_2_1" index="1" speed="13.89" length="26.44" width="3.66" shape="6650.68,165.56 6625.98,156.13"/>
    </edge>
    <edge id=":junction_74_0" function="internal">
        <lane id=":junction_74_0_0" index="0" disallow="all" speed="13.89" length="35.33" width="3.66" shape="3741.01,158.94 3705.85,160.86"/>
        <lane id=":junction_74_0_1" index="1" speed="13.89" length="35.33" width="3.66" shape="3741.12,155.29 3705.72,157.20"/>
    </edge>
    <edge id=":junction_74_2" function="internal">
        <lane id=":junction_74_2_0" index="0" speed="13.89" length="36.14" width="3.66" shape="3741.23,151.63 3705.10,150.54"/>
        <lane id=":junction_74_2_1" index="1" speed="13.89" length="36.14" width="3.66" shape="3741.34,147.97 3705.23,146.88"/>
    </edge>
    <edge id=":junction_77_0" function="internal">
        <lane id=":junction_77_0_0" index="0" speed="13.89" length="34.25" width="3.66" shape="1692.89,97.04 1681.93,97.10 1672.05,97.68 1664.05,98.40 1658.72,98.89"/>
    </edge>
    <edge id=":junction_77_1" function="internal">
        <lane id=":junction_77_1_0" index="0" speed="13.89" length="34.58" width="3.66" shape="1693.00,93.38 1658.43,92.34"/>
        <lane id=":junction_77_1_1" index="1" speed="13.89" length="34.58" width="3.66" shape="1693.11,89.72 1658.54,88.68"/>
    </edge>
    <edge id=":node_149_end_0" function="internal">
        <lane id=":node_149_end_0_0" index="0" speed="13.89" length="0.30" width="3.66" shape="6880.42,280.34 6880.17,280.16"/>
        <lane id=":node_149_end_0_1" index="1" speed="13.89" length="0.30" width="3.66" shape="6882.54,277.36 6882.30,277.18"/>
        <lane id=":node_149_end_0_2" index="2" speed="13.89" length="0.30" width="3.66" shape="6884.67,274.38 6884.43,274.20"/>
    </edge>
    <edge id=":node_149_start_0" function="internal">
        <lane id=":node_149_start_0_0" index="0" speed="13.89" length="4.97" width="3.66" shape="6924.33,309.19 6919.42,309.89"/>
        <lane id=":node_149_start_0_1" index="1" speed="13.89" length="4.97" width="3.66" shape="6926.66,306.37 6921.73,307.06"/>
    </edge>
    <edge id=":node_149_start_2" function="internal">
        <lane id=":node_149_start_2_0" index="0" speed="13.89" length="9.01" width="3.66" shape="6921.20,312.77 6924.04,304.22"/>
    </edge>
    <edge id=":node_150_end_0" function="internal">
        <lane id=":node_150_end_0_0" index="0" speed="13.89" length="3.00" width="3.66" shape="6203.84,15.54 6200.88,15.05"/>
        <lane id=":node_150_end_0_1" index="1" speed="13.89" length="3.00" width="3.66" shape="6204.45,11.93 6201.49,11.44"/>
    </edge>
    <edge id=":node_150_start_0" function="internal">
        <lane id=":node_150_start_0_0" index="0" speed="13.89" length="3.00" width="3.66" shape="6612.89,155.00 6610.09,153.91"/>
        <lane id=":node_150_start_0_1" index="1" speed="13.89" length="3.00" width="3.66" shape="6614.22,151.59 6611.42,150.50"/>
    </edge>
    <edge id=":node_152_end_0" function="internal">
        <lane id=":node_152_end_0_0" index="0" speed="13.89" length="0.30" width="3.66" shape="5971.42,13.61 5971.11,13.63"/>
        <lane id=":node_152_end_0_1" index="1" speed="13.89" length="0.30" width="3.66" shape="5971.08,9.96 5970.78,9.99"/>
        <lane id=":node_152_end_0_2" index="2" speed="13.89" length="0.30" width="3.66" shape="5970.74,6.32 5970.44,6.35"/>
    </edge>
    <edge id=":node_152_start_0" function="internal">
        <lane id=":node_152_start_0_0" index="0" speed="13.89" length="3.00" width="3.66" shape="6103.73,10.03 6100.75,9.90"/>
        <lane id=":node_152_start_0_1" index="1" speed="13.89" length="3.00" width="3.66" shape="6103.89,6.37 6100.90,6.24"/>
        <lane id=":node_152_start_0_2" index="2" speed="13.89" length="3.00" width="3.66" shape="6104.06,2.72 6101.04,2.59"/>
    </edge>
    <edge id=":node_153_end_0" function="internal">
        <lane id=":node_153_end_0_0" index="0" speed="13.89" length="44.45" width="3.66" shape="6965.57,345.03 6955.82,337.12 6944.96,329.27 6935.43,322.75 6929.68,318.83"/>
    </edge>
    <edge id=":node_153_end_1" function="internal">
        <lane id=":node_153_end_1_0" index="0" speed="13.89" length="44.28" width="3.66" shape="6965.57,345.03 6932.37,315.84"/>
        <lane id=":node_153_end_1_1" index="1" speed="13.89" length="44.28" width="3.66" shape="6968.01,342.30 6934.70,313.02"/>
    </edge>
    <edge id=":node_154_end_0" function="internal">
        <lane id=":node_154_end_0_0" index="0" speed="13.89" length="0.29" width="3.66" shape="6703.44,193.55 6703.12,193.43"/>
        <lane id=":node_154_end_0_1" index="1" speed="13.89" length="0.29" width="3.66" shape="6704.73,190.12 6704.45,190.01"/>
        <lane id=":node_154_end_0_2" index="2" speed="13.89" length="0.29" width="3.66" shape="6706.01,186.69 6705.78,186.60"/>
    </edge>
    <edge id=":node_154_start_0" function="internal">
        <lane id=":node_154_start_0_0" index="0" speed="13.89" length="0.29" width="3.66" shape="6754.84,213.34 6754.61,213.25"/>
        <lane id=":node_154_start_0_1" index="1" speed="13.89" length="0.29" width="3.66" shape="6756.23,209.95 6755.96,209.84"/>
        <lane id=":node_154_start_0_2" index="2" speed="13.89" length="0.29" width="3.66" shape="6757.61,206.56 6757.30,206.44"/>
    </edge>
    <edge id=":node_160_end_0" function="internal">
        <lane id=":node_160_end_0_0" index="0" speed="13.89" length="0.30" width="3.66" shape="3880.30,159.26 3880.01,159.25"/>
        <lane id=":node_160_end_0_1" index="1" speed="13.89" length="0.30" width="3.66" shape="3880.42,155.60 3880.12,155.59"/>
        <lane id=":node_160_end_0_2" index="2" speed="13.89" length="0.30" width="3.66" shape="3880.54,151.94 3880.23,151.93"/>
    </edge>
    <edge id=":node_172_start_0" function="internal">
        <lane id=":node_172_start_0_0" index="0" speed="13.89" length="0.10" width="3.66" shape="1231.41,86.70 1231.41,86.70"/>
    </edge>
    <edge id=":node_177_end_0" function="internal">
        <lane id=":node_177_end_0_0" index="0" speed="13.89" length="3.00" width="3.66" shape="1232.91,80.38 1229.91,80.30"/>
        <lane id=":node_177_end_0_1" index="1" speed="13.89" length="3.00" width="3.66" shape="1233.02,76.72 1230.02,76.64"/>
    </edge>
    <edge id=":node_184_start_0" function="internal">
        <lane id=":node_184_start_0_0" index="0" speed="13.89" length="3.00" width="3.66" shape="2932.04,128.73 2929.04,128.65"/>
        <lane id=":node_184_start_0_1" index="1" speed="13.89" length="3.00" width="3.66" shape="2932.14,125.07 2929.14,124.99"/>
    </edge>
    <edge id=":node_185_start_0" function="internal">
        <lane id=":node_185_start_0_0" index="0" speed="13.89" length="0.28" width="3.66" shape="2930.61,135.23 2930.33,135.21"/>
    </edge>
    <edge id=":node_192_start_0" function="internal">
        <lane id=":node_192_start_0_0" index="0" speed="13.89" length="3.19" width="3.66" shape="1716.14,94.04 1712.95,93.95"/>
        <lane id=":node_192_start_0_1" index="1" speed="13.89" length="3.19" width="3.66" shape="1716.24,90.39 1713.06,90.30"/>
    </edge>
    <edge id=":node_192_start_2" function="internal">
        <lane id=":node_192_start_2_0" index="0" speed="13.89" length="3.14" width="3.66" shape="1715.95,97.28 1712.84,97.61"/>
    </edge>
    <edge id=":node_193_end_0" function="internal">
        <lane id=":node_193_end_0_0" index="0" speed="13.89" length="7.79" width="3.66" shape="1776.46,95.69 1768.67,95.74"/>
    </edge>
    <edge id=":node_193_end_1" function="internal">
        <lane id=":node_193_end_1_0" index="0" speed="13.89" length="8.12" width="3.66" shape="1776.46,95.69 1768.34,95.45"/>
        <lane id=":node_193_end_1_1" index="1" speed="13.89" length="8.12" width="3.66" shape="1776.57,92.03 1768.45,91.79"/>
    </edge>

    <edge id="147.0" from="junction_73" to="junction_72" priority="-1" type="town" shape="6610.26,159.23 6606.41,158.58 6596.56,156.73 6589.82,155.50 6580.92,153.95 6574.55,152.87 6563.80,151.27 6548.05,149.26 6526.92,145.38 6515.89,143.08 6509.17,141.47 6502.05,139.62 6495.08,137.68 6487.79,135.44">
        <lane id="147.0_0" index="0" disallow="all" speed="13.89" length="125.38" width="3.66" shape="6609.35,164.64 6605.45,163.98 6595.56,162.13 6588.86,160.91 6579.99,159.36 6573.69,158.29 6563.05,156.71 6547.21,154.69 6525.86,150.77 6514.69,148.44 6507.84,146.80 6500.62,144.92 6493.54,142.95 6486.18,140.69" type="shoulder"/>
        <lane id="147.0_1" index="1" speed="13.89" length="125.38" width="3.66" shape="6609.96,161.03 6606.09,160.38 6596.23,158.53 6589.50,157.30 6580.61,155.75 6574.26,154.68 6563.55,153.08 6547.77,151.07 6526.57,147.18 6515.49,144.87 6508.73,143.25 6501.57,141.39 6494.57,139.44 6487.25,137.19"/>
    </edge>
    <edge id="149.0" from="node_149_start" to="node_149_end" priority="-1" type="town" shape="6926.34,303.73 6922.46,300.57 6916.29,295.65 6910.15,290.93 6903.20,285.69 6896.23,280.46 6889.83,275.81 6885.61,272.80">
        <lane id="149.0_0" index="0" disallow="all" speed="13.89" length="49.06" width="3.66" shape="6917.11,312.73 6914.43,310.55 6908.39,305.74 6902.39,301.12 6895.50,295.93 6888.62,290.77 6882.34,286.20 6878.29,283.32" type="shoulder"/>
        <lane id="149.0_1" index="1" speed="13.89" length="49.06" width="3.66" shape="6919.42,309.89 6916.73,307.70 6910.65,302.85 6904.61,298.21 6897.70,293.00 6890.79,287.82 6884.48,283.23 6880.42,280.34"/>
        <lane id="149.0_2" index="2" speed="13.89" length="49.06" width="3.66" shape="6921.73,307.06 6919.02,304.85 6912.91,299.97 6906.83,295.30 6899.90,290.08 6892.97,284.88 6886.62,280.26 6882.54,277.36"/>
        <lane id="149.0_3" index="3" speed="13.89" length="49.06" width="3.66" shape="6924.04,304.22 6921.31,302.00 6915.16,297.09 6909.04,292.39 6902.10,287.15 6895.14,281.93 6888.76,277.29 6884.67,274.38"/>
    </edge>
    <edge id="150.0" from="node_150_start" to="node_150_end" priority="-1" type="town" shape="6613.48,149.34 6608.05,147.23 6595.62,142.45 6588.59,139.76 6581.97,137.21 6575.76,134.81 6568.26,131.96 6561.02,129.18 6558.08,128.06 6553.13,126.11 6539.78,120.99 6536.42,119.74 6532.65,118.35 6527.38,116.35 6523.46,114.84 6521.56,114.14 6520.06,113.58 6514.51,111.53 6506.46,108.47 6499.69,105.84 6493.97,103.72 6486.85,100.94 6482.47,99.26 6479.91,98.33 6474.06,96.04 6468.44,93.87 6465.11,92.57 6461.97,91.34 6456.74,89.32 6449.70,86.57 6442.52,83.80 6435.94,81.18 6429.28,78.60 6422.67,75.99 6421.87,75.68 6414.97,72.94 6409.80,70.97 6402.99,68.27 6397.08,66.00 6390.39,63.46 6382.92,60.61 6375.70,57.97 6369.21,55.52 6363.44,53.41 6357.64,51.31 6352.00,49.24 6347.08,47.47 6342.79,45.92 6338.27,44.33 6332.88,42.49 6327.90,40.77 6322.47,39.00 6318.74,37.82 6313.53,36.21 6307.45,34.39 6302.85,33.03 6296.95,31.36 6291.37,29.78 6286.37,28.38 6280.46,26.79 6276.70,25.87 6272.48,24.76 6266.93,23.37 6261.51,22.05 6255.66,20.65 6249.91,19.33 6245.05,18.24 6239.93,17.11 6234.97,16.04 6229.39,14.88 6223.81,13.70 6218.58,12.68 6211.97,11.41 6205.70,10.29 6203.27,9.88">
        <lane id="150.0_0" index="0" disallow="all" speed="13.89" length="429.93" width="3.66" shape="6608.77,157.33 6604.76,155.77 6592.34,150.99 6585.31,148.30 6578.68,145.75 6572.49,143.35 6565.00,140.51 6557.75,137.72 6554.76,136.59 6549.81,134.64 6536.52,129.54 6533.24,128.32 6529.44,126.92 6524.12,124.90 6520.21,123.39 6518.38,122.72 6516.88,122.16 6511.29,120.10 6503.18,117.01 6496.44,114.39 6490.72,112.27 6483.54,109.47 6479.25,107.82 6476.68,106.89 6470.74,104.57 6465.13,102.40 6461.78,101.09 6458.66,99.87 6453.42,97.85 6446.39,95.10 6439.18,92.32 6432.60,89.70 6425.95,87.12 6419.32,84.50 6418.50,84.19 6411.64,81.46 6406.48,79.50 6399.66,76.79 6393.82,74.55 6387.13,72.01 6379.72,69.18 6372.52,66.55 6366.02,64.10 6360.31,62.01 6354.51,59.91 6348.87,57.84 6343.98,56.08 6339.72,54.54 6335.28,52.98 6329.91,51.14 6324.99,49.45 6319.67,47.71 6316.01,46.55 6310.87,44.96 6304.84,43.16 6300.31,41.82 6294.46,40.16 6288.89,38.59 6283.95,37.20 6278.16,35.65 6274.44,34.74 6270.21,33.62 6264.74,32.25 6259.36,30.94 6253.57,29.56 6247.88,28.25 6243.06,27.17 6237.98,26.05 6233.08,24.99 6227.51,23.84 6221.99,22.67 6216.84,21.66 6210.30,20.41 6204.12,19.30 6203.23,19.15" type="shoulder"/>
        <lane id="150.0_1" index="1" speed="13.89" length="429.93" width="3.66" shape="6610.09,153.91 6606.07,152.35 6593.65,147.58 6586.62,144.89 6579.99,142.33 6573.80,139.94 6566.30,137.09 6559.06,134.31 6556.09,133.18 6551.14,131.23 6537.82,126.12 6534.51,124.89 6530.72,123.49 6525.42,121.48 6521.51,119.97 6519.65,119.29 6518.15,118.73 6512.58,116.67 6504.49,113.60 6497.74,110.97 6492.02,108.85 6484.86,106.06 6480.54,104.40 6477.97,103.47 6472.07,101.16 6466.46,98.99 6463.11,97.68 6459.98,96.46 6454.75,94.44 6447.71,91.69 6440.52,88.91 6433.93,86.29 6427.28,83.71 6420.66,81.10 6419.85,80.78 6412.97,78.05 6407.81,76.09 6400.99,73.38 6395.12,71.13 6388.44,68.59 6381.00,65.75 6373.79,63.12 6367.30,60.67 6361.56,58.57 6355.76,56.47 6350.12,54.40 6345.22,52.63 6340.95,51.09 6336.47,49.52 6331.10,47.68 6326.16,45.98 6320.79,44.23 6317.10,43.06 6311.93,41.46 6305.88,39.65 6301.33,38.30 6295.45,36.64 6289.88,35.06 6284.92,33.67 6279.08,32.10 6275.35,31.19 6271.12,30.08 6265.61,28.70 6260.22,27.39 6254.41,26.00 6248.69,24.68 6243.86,23.60 6238.76,22.47 6233.83,21.41 6228.26,20.25 6222.72,19.08 6217.54,18.07 6210.97,16.81 6204.75,15.70 6203.84,15.54"/>
        <lane id="150.0_2" index="2" speed="13.89" length="429.93" width="3.66" shape="6611.42,150.50 6607.39,148.94 6594.96,144.16 6587.93,141.47 6581.31,138.92 6575.11,136.52 6567.61,133.67 6560.37,130.89 6557.42,129.77 6552.47,127.82 6539.13,122.70 6535.78,121.46 6532.01,120.06 6526.73,118.06 6522.81,116.55 6520.92,115.86 6519.42,115.30 6513.87,113.24 6505.80,110.18 6499.04,107.55 6493.32,105.43 6486.19,102.65 6481.83,100.97 6479.26,100.04 6473.40,97.75 6467.78,95.58 6464.44,94.27 6461.31,93.05 6456.08,91.03 6449.04,88.28 6441.85,85.50 6435.27,82.88 6428.61,80.30 6422.00,77.69 6421.20,77.38 6414.30,74.64 6409.14,72.68 6402.32,69.97 6396.43,67.71 6389.74,65.17 6382.28,62.32 6375.06,59.69 6368.57,57.24 6362.81,55.13 6357.01,53.03 6351.37,50.96 6346.46,49.19 6342.18,47.64 6337.67,46.06 6332.29,44.22 6327.32,42.51 6321.91,40.74 6318.19,39.57 6313.00,37.96 6306.93,36.14 6302.34,34.79 6296.45,33.12 6290.87,31.54 6285.89,30.14 6280.00,28.56 6276.25,27.64 6272.03,26.53 6266.49,25.15 6261.08,23.83 6255.24,22.43 6249.50,21.11 6244.65,20.03 6239.54,18.90 6234.59,17.83 6229.01,16.67 6223.45,15.49 6218.23,14.48 6211.64,13.21 6205.38,12.09 6204.45,11.93"/>
    </edge>
    <edge id="152.0" from="node_152_start" to="node_152_end" priority="-1" type="town" shape="6102.63,0.82 6095.39,0.53 6088.28,0.29 6082.15,0.14 6075.13,0.02 6066.87,0.00 6060.59,0.01 6057.17,0.04 6055.91,0.06 6050.92,0.14 6045.72,0.26 6039.14,0.48 6032.31,0.71 6024.61,0.96 6017.38,1.27 6009.89,1.67 6007.74,1.78 6006.98,1.83 6001.66,2.15 5993.74,2.65 5989.29,2.95 5981.14,3.62 5972.76,4.29 5970.42,4.51">
        <lane id="152.0_0" index="0" disallow="all" speed="13.89" length="129.72" width="3.66" shape="6100.60,13.56 6094.92,13.33 6087.90,13.09 6081.89,12.95 6075.01,12.83 6066.86,12.81 6060.64,12.82 6057.31,12.85 6056.12,12.87 6051.17,12.95 6046.09,13.06 6039.57,13.28 6032.73,13.51 6025.09,13.76 6018.00,14.07 6010.57,14.46 6008.44,14.57 6007.76,14.62 6002.45,14.94 5994.57,15.43 5990.25,15.72 5982.18,16.39 5973.82,17.06 5971.76,17.25" type="shoulder"/>
        <lane id="152.0_1" index="1" speed="13.89" length="129.72" width="3.66" shape="6100.75,9.90 6095.05,9.67 6088.01,9.44 6081.96,9.29 6075.04,9.17 6066.86,9.15 6060.63,9.16 6057.27,9.19 6056.06,9.21 6051.10,9.29 6045.98,9.41 6039.45,9.62 6032.61,9.86 6024.95,10.10 6017.82,10.41 6010.37,10.81 6008.24,10.92 6007.54,10.96 6002.23,11.28 5994.33,11.78 5989.97,12.07 5981.88,12.74 5973.52,13.41 5971.42,13.61"/>
        <lane id="152.0_2" index="2" speed="13.89" length="129.72" width="3.66" shape="6100.90,6.24 6095.19,6.02 6088.12,5.78 6082.04,5.63 6075.08,5.51 6066.87,5.49 6060.61,5.50 6057.23,5.53 6056.00,5.55 6051.03,5.63 6045.88,5.75 6039.32,5.97 6032.49,6.20 6024.82,6.45 6017.64,6.75 6010.18,7.15 6008.04,7.26 6007.31,7.31 6002.00,7.63 5994.09,8.13 5989.70,8.42 5981.58,9.09 5973.21,9.76 5971.08,9.96"/>
        <lane id="152.0_3" index="3" speed="13.89" length="129.72" width="3.66" shape="6101.04,2.59 6095.32,2.36 6088.23,2.12 6082.11,1.97 6075.11,1.85 6066.87,1.83 6060.60,1.84 6057.19,1.87 6055.94,1.89 6050.96,1.97 6045.77,2.09 6039.20,2.31 6032.37,2.54 6024.68,2.79 6017.47,3.10 6009.99,3.50 6007.84,3.61 6007.09,3.66 6001.77,3.98 5993.86,4.48 5989.43,4.77 5981.29,5.44 5972.91,6.11 5970.74,6.32"/>
    </edge>