<?xml version='1.0' encoding='utf-8'?>
<edges>
    <edge id="147.0" from="junction_73" to="junction_72" numLanes="2" speed="13.89" type="town" shape="738224.76,3287335.31 738220.91,3287334.66 738220.91,3287334.66 738211.06,3287332.81 738211.06,3287332.81 738204.32,3287331.58 738204.32,3287331.58 738195.42,3287330.03 738195.42,3287330.03 738189.05,3287328.95 738189.05,3287328.95 738178.30,3287327.35 738178.30,3287327.35 738162.55,3287325.34 738162.55,3287325.34 738141.42,3287321.46 738141.42,3287321.46 738130.39,3287319.16 738130.39,3287319.16 738123.67,3287317.55 738123.67,3287317.55 738116.55,3287315.70 738116.55,3287315.70 738109.58,3287313.76 738109.58,3287313.76 738102.29,3287311.52">
        <lane index="0" width="3.66" type="shoulder" disallow="all" />
        <lane index="1" width="3.66" />
    </edge>
    <edge id="149.0" from="node_149_start" to="node_149_end" numLanes="4" speed="13.89" type="town" shape="738540.84,3287479.81 738536.96,3287476.65 738536.96,3287476.65 738530.79,3287471.73 738530.79,3287471.73 738524.65,3287467.01 738524.65,3287467.01 738517.70,3287461.77 738517.70,3287461.77 738510.73,3287456.54 738510.73,3287456.54 738504.33,3287451.89 738504.33,3287451.89 738500.11,3287448.88">
        <lane index="0" width="3.66" type="shoulder" disallow="all" />
        <lane index="1" width="3.66" />
        <lane index="2" width="3.66" />
        <lane index="3" width="3.66" />
    </edge>
    <edge id="150.0" from="node_150_start" to="node_150_end" numLanes="3" speed="13.89" type="town" shape="738227.98,3287325.42 738222.55,3287323.31 738222.55,3287323.31 738210.12,3287318.53 738210.12,3287318.53 738203.09,3287315.84 738203.09,3287315.84 738196.47,3287313.29 738196.47,3287313.29 738190.26,3287310.89 738190.26,3287310.89 738182.76,3287308.04 738182.76,3287308.04 738175.52,3287305.26 738175.52,3287305.26 738172.58,3287304.14 738172.58,3287304.14 738167.63,3287302.19 738167.63,3287302.19 738154.28,3287297.07 738154.28,3287297.07 738150.92,3287295.82 738150.92,3287295.82 738147.15,3287294.43 738147.15,3287294.43 738141.88,3287292.43 738141.88,3287292.43 738137.96,3287290.92 738137.96,3287290.92 738136.06,3287290.22 738136.06,3287290.22 738134.56,3287289.66 738134.56,3287289.66 738129.01,3287287.61 738129.01,3287287.61 738120.96,3287284.55 738120.96,3287284.55 738114.19,3287281.92 738114.19,3287281.92 738108.47,3287279.80 738108.47,3287279.80 738101.35,3287277.02 738101.35,3287277.02 738096.97,3287275.34 738096.97,3287275.34 738094.41,3287274.41 738094.41,3287274.41 738088.56,3287272.12 738088.56,3287272.12 738082.94,3287269.95 738082.94,3287269.95 738079.61,3287268.65 738079.61,3287268.65 738076.47,3287267.42 738076.47,3287267.42 738071.24,3287265.40 738071.24,3287265.40 738064.20,3287262.65 738064.20,3287262.65 738057.02,3287259.88 738057.02,3287259.88 738050.44,3287257.26 738050.44,3287257.26 738043.78,3287254.68 738043.78,3287254.68 738037.17,3287252.07 738037.17,3287252.07 738036.37,3287251.76 738036.37,3287251.76 738029.47,3287249.02 738029.47,3287249.02 738024.30,3287247.05 738024.30,3287247.05 738017.49,3287244.35 738017.49,3287244.35 738011.58,3287242.08 738011.58,3287242.08 738004.89,3287239.54 738004.89,3287239.54 737997.42,3287236.69 737997.42,3287236.69 737990.20,3287234.05 737990.20,3287234.05 737983.71,3287231.60 737983.71,3287231.60 737977.94,3287229.49 737977.94,3287229.49 737972.14,3287227.39 737972.14,3287227.39 737966.50,3287225.32 737966.50,3287225.32 737961.58,3287223.55 737961.58,3287223.55 737957.29,3287222.00 737957.29,3287222.00 737952.77,3287220.41 737952.77,3287220.41 737947.38,3287218.57 737947.38,3287218.57 737942.40,3287216.85 737942.40,3287216.85 737936.97,3287215.08 737936.97,3287215.08 737933.24,3287213.90 737933.24,3287213.90 737928.03,3287212.29 737928.03,3287212.29 737921.95,3287210.47 737921.95,3287210.47 737917.35,3287209.11 737917.35,3287209.11 737911.45,3287207.44 737911.45,3287207.44 737905.87,3287205.86 737905.87,3287205.86 737900.87,3287204.46 737900.87,3287204.46 737894.96,3287202.87 737894.96,3287202.87 737891.20,3287201.95 737891.20,3287201.95 737886.98,3287200.84 737886.98,3287200.84 737881.43,3287199.45 737881.43,3287199.45 737876.01,3287198.13 737876.01,3287198.13 737870.16,3287196.73 737870.16,3287196.73 737864.41,3287195.41 737864.41,3287195.41 737859.55,3287194.32 737859.55,3287194.32 737854.43,3287193.19 737854.43,3287193.19 737849.47,3287192.12 737849.47,3287192.12 737843.89,3287190.96 737843.89,3287190.96 737838.31,3287189.78 737838.31,3287189.78 737833.08,3287188.76 737833.08,3287188.76 737826.47,3287187.49 737826.47,3287187.49 737820.20,3287186.37 737820.20,3287186.37 737817.77,3287185.96">
        <lane index="0" width="3.66" type="shoulder" disallow="all" />
        <lane index="1" width="3.66" />
        <lane index="2" width="3.66" />
    </edge>
    <edge id="152.0" from="node_152_start" to="node_152_end" numLanes="4" speed="13.89" type="town" shape="737717.13,3287176.90 737709.89,3287176.61 737709.89,3287176.61 737702.78,3287176.37 737702.78,3287176.37 737696.65,3287176.22 737696.65,3287176.22 737689.63,3287176.10 737689.63,3287176.10 737681.37,3287176.08 737681.37,3287176.08 737675.09,3287176.09 737675.09,3287176.09 737671.67,3287176.12 737671.67,3287176.12 737670.41,3287176.14 737670.41,3287176.14 737665.42,3287176.22 737665.42,3287176.22 737660.22,3287176.34 737660.22,3287176.34 737653.64,3287176.56 737653.64,3287176.56 737646.81,3287176.79 737646.81,3287176.79 737639.11,3287177.04 737639.11,3287177.04 737631.88,3287177.35 737631.88,3287177.35 737624.39,3287177.75 737624.39,3287177.75 737622.24,3287177.86 737622.24,3287177.86 737621.48,3287177.91 737621.48,3287177.91 737616.16,3287178.23 737616.16,3287178.23 737608.24,3287178.73 737608.24,3287178.73 737603.79,3287179.03 737603.79,3287179.03 737595.64,3287179.70 737595.64,3287179.70 737587.26,3287180.37 737587.26,3287180.37 737584.92,3287180.59">
        <lane index="0" width="3.66" type="shoulder" disallow="all" />
        <lane index="1" width="3.66" />
        <lane index="2" width="3.66" />
        <lane index="3" width="3.66" />
    </edge>
    <edge id="153.0" from="node_153_start" to="node_153_end" numLanes="3" speed="13.89" type="town" shape="740769.78,3288726.24 740763.22,3288721.27 740763.22,3288721.27 740758.98,3288718.00 740758.98,3288718.00 740754.07,3288714.27 740754.07,3288714.27 740749.29,3288710.67 740749.29,3288710.67 740744.87,3288707.24 740744.87,3288707.24 740740.32,3288703.84 740740.32,3288703.84 740735.26,3288700.00 740735.26,3288700.00 740730.63,3288696.56 740730.63,3288696.56 740724.89,3288692.24 740724.89,3288692.24 740720.80,3288689.20 740720.80,3288689.20 740717.57,3288686.79 740717.57,3288686.79 740710.18,3288681.34 740710.18,3288681.34 740707.28,3288679.24 740707.28,3288679.24 740701.50,3288675.00 740701.50,3288675.00 740697.40,3288672.06 740697.40,3288672.06 740693.27,3288669.08 740693.27,3288669.08 740689.08,3288666.08 740689.08,3288666.08 740684.49,3288662.84 740684.49,3288662.84 740679.79,3288659.48 740679.79,3288659.48 740676.10,3288656.90 740676.10,3288656.90 740671.21,3288653.51 740671.21,3288653.51 740667.11,3288650.70 740667.11,3288650.70 740663.11,3288648.03 740663.11,3288648.03 740659.23,3288645.47 740659.23,3288645.47 740655.45,3288643.00 740655.45,3288643.00 740651.26,3288640.34 740651.26,3288640.34 740647.23,3288637.81 740647.23,3288637.81 740643.18,3288635.32 740643.18,3288635.32 740637.58,3288631.92 740637.58,3288631.92 740632.76,3288629.07 740632.76,3288629.07 740628.31,3288626.47 740628.31,3288626.47 740624.31,3288624.18 740624.31,3288624.18 740620.26,3288621.86 740620.26,3288621.86 740616.31,3288619.66 740616.31,3288619.66 740613.60,3288618.15 740613.60,3288618.15 740609.86,3288616.12 740609.86,3288616.12 740606.55,3288614.36 740606.55,3288614.36 740603.63,3288612.79 740603.63,3288612.79 740600.41,3288611.10 740600.41,3288611.10 740597.27,3288609.50 740597.27,3288609.50 740594.02,3288607.84 740594.02,3288607.84 740590.93,3288606.29 740590.93,3288606.29 740587.92,3288604.80 740587.92,3288604.80 740584.81,3288603.25 740584.81,3288603.25 740581.55,3288601.67 740581.55,3288601.67 740578.46,3288600.18 740578.46,3288600.18 740575.20,3288598.64 740575.20,3288598.64 740571.73,3288597.00 740571.73,3288597.00 740567.96,3288595.28 740567.96,3288595.28 740565.11,3288593.95 740565.11,3288593.95 740562.73,3288592.92 740562.73,3288592.92 740561.08,3288592.19 740561.08,3288592.19 740558.29,3288590.97 740558.29,3288590.97 740555.87,3288589.92 740555.87,3288589.92 740553.09,3288588.73 740553.09,3288588.73 740550.91,3288587.82 740550.91,3288587.82 740548.50,3288586.80 740548.50,3288586.80 740545.77,3288585.67 740545.77,3288585.67 740543.24,3288584.60 740543.24,3288584.60 740540.71,3288583.58 740540.71,3288583.58 740538.10,3288582.54 740538.10,3288582.54 740535.31,3288581.39 740535.31,3288581.39 740532.36,3288580.22 740532.36,3288580.22 740529.84,3288579.21 740529.84,3288579.21 740526.04,3288577.73 740526.04,3288577.73 740522.16,3288576.24 740522.16,3288576.24 740519.34,3288575.17 740519.34,3288575.17 740508.56,3288571.01 740508.56,3288571.01 740504.38,3288569.44 740504.38,3288569.44 740501.83,3288568.48 740501.83,3288568.48 740495.65,3288566.11 740495.65,3288566.11 740493.11,3288565.17 740493.11,3288565.17 740490.57,3288564.23 740490.57,3288564.23 740488.34,3288563.38 740488.34,3288563.38 740481.59,3288560.90 740481.59,3288560.90 740470.14,3288556.77 740470.14,3288556.77 740463.94,3288554.54 740463.94,3288554.54 740457.51,3288552.23 740457.51,3288552.23 740454.43,3288551.14 740454.43,3288551.14 740451.52,3288550.12 740451.52,3288550.12 740448.57,3288549.11 740448.57,3288549.11 740445.65,3288548.06 740445.65,3288548.06 740441.85,3288546.71 740441.85,3288546.71 740439.32,3288545.83 740439.32,3288545.83 740436.67,3288544.86 740436.67,3288544.86 740433.56,3288543.77 740433.56,3288543.77 740430.53,3288542.69 740430.53,3288542.69 740427.53,3288541.62 740427.53,3288541.62 740424.54,3288540.57 740424.54,3288540.57 740419.13,3288538.64 740419.13,3288538.64 740415.33,3288537.29 740415.33,3288537.29 740411.63,3288535.97 740411.63,3288535.97 740408.54,3288534.89 740408.54,3288534.89 740404.84,3288533.57 740404.84,3288533.57 740399.79,3288531.80 740399.79,3288531.80 740395.77,3288530.41 740395.77,3288530.41 740392.61,3288529.30 740392.61,3288529.30 740389.14,3288528.06 740389.14,3288528.06 740385.59,3288526.79 740385.59,3288526.79 740383.02,3288525.91 740383.02,3288525.91 740379.48,3288524.67 740379.48,3288524.67 740376.10,3288523.46 740376.10,3288523.46 740372.46,3288522.18 740372.46,3288522.18 740369.91,3288521.30 740369.91,3288521.30 740367.80,3288520.55 740367.80,3288520.55 740364.89,3288519.49 740364.89,3288519.49 740362.75,3288518.76 740362.75,3288518.76 740359.34,3288517.52 740359.34,3288517.52 740355.96,3288516.36 740355.96,3288516.36 740352.72,3288515.21 740352.72,3288515.21 740349.36,3288514.03 740349.36,3288514.03 740345.76,3288512.76 740345.76,3288512.76 740342.70,3288511.68 740342.70,3288511.68 740339.18,3288510.43 740339.18,3288510.43 740335.28,3288509.06 740335.28,3288509.06 740331.27,3288507.63 740331.27,3288507.63 740326.72,3288506.01 740326.72,3288506.01 740322.70,3288504.58 740322.70,3288504.58 740319.67,3288503.54 740319.67,3288503.54 740316.16,3288502.31 740316.16,3288502.31 740313.03,3288501.20 740313.03,3288501.20 740310.61,3288500.32 740310.61,3288500.32 740306.09,3288498.72 740306.09,3288498.72 740300.88,3288496.87 740300.88,3288496.87 740292.83,3288494.06 740292.83,3288494.06 740287.09,3288492.05 740287.09,3288492.05 740282.15,3288490.31 740282.15,3288490.31 740279.46,3288489.37 740279.46,3288489.37 740269.85,3288485.97 740269.85,3288485.97 740262.30,3288483.37 740262.30,3288483.37 740257.25,3288481.58 740257.25,3288481.58 740250.08,3288479.03 740250.08,3288479.03 740242.39,3288476.26 740242.39,3288476.26 740236.37,3288474.17 740236.37,3288474.17 740229.82,3288471.79 740229.82,3288471.79 740224.71,3288469.99 740224.71,3288469.99 740220.22,3288468.40 740220.22,3288468.40 740214.83,3288466.49 740214.83,3288466.49 740208.62,3288464.30 740208.62,3288464.30 740201.94,3288461.92 740201.94,3288461.92 740197.47,3288460.32 740197.47,3288460.32 740193.12,3288458.75 740193.12,3288458.75 740187.01,3288456.54 740187.01,3288456.54 740180.09,3288454.03 740180.09,3288454.03 740175.06,3288452.21 740175.06,3288452.21 740169.59,3288450.19 740169.59,3288450.19 740164.15,3288448.21 740164.15,3288448.21 740159.65,3288446.56 740159.65,3288446.56 740155.13,3288444.90 740155.13,3288444.90 740151.41,3288443.54 740151.41,3288443.54 740148.36,3288442.43 740148.36,3288442.43 740144.66,3288441.10 740144.66,3288441.10 740141.20,3288439.83 740141.20,3288439.83 740138.03,3288438.64 740138.03,3288438.64 740134.24,3288437.26 740134.24,3288437.26 740129.86,3288435.66 740129.86,3288435.66 740126.64,3288434.51 740126.64,3288434.51 740124.03,3288433.55 740124.03,3288433.55 740120.54,3288432.26 740120.54,3288432.26 740117.51,3288431.14 740117.51,3288431.14 740114.22,3288429.95 740114.22,3288429.95 740110.75,3288428.66 740110.75,3288428.66 740107.56,3288427.48 740107.56,3288427.48 740104.11,3288426.22 740104.11,3288426.22 740098.13,3288424.00 740098.13,3288424.00 740094.47,3288422.61 740094.47,3288422.61 740091.34,3288421.45 740091.34,3288421.45 740088.39,3288420.31 740088.39,3288420.31 740084.83,3288418.95 740084.83,3288418.95 740081.73,3288417.72 740081.73,3288417.72 740078.17,3288416.33 740078.17,3288416.33 740075.08,3288415.14 740075.08,3288415.14 740071.35,3288413.66 740071.35,3288413.66 740067.00,3288411.92 740067.00,3288411.92 740063.39,3288410.49 740063.39,3288410.49 740059.88,3288409.10 740059.88,3288409.10 740055.92,3288407.50 740055.92,3288407.50 740052.56,3288406.15 740052.56,3288406.15 740049.95,3288405.12 740049.95,3288405.12 740046.33,3288403.65 740046.33,3288403.65 740043.38,3288402.47 740043.38,3288402.47 740041.37,3288401.63 740041.37,3288401.63 740039.11,3288400.72 740039.11,3288400.72 740036.46,3288399.62 740036.46,3288399.62 740034.05,3288398.62 740034.05,3288398.62 740031.15,3288397.42 740031.15,3288397.42 740027.35,3288395.84 740027.35,3288395.84 740023.87,3288394.39 740023.87,3288394.39 740021.24,3288393.29 740021.24,3288393.29 740018.58,3288392.15 740018.58,3288392.15 740014.60,3288390.45 740014.60,3288390.45 740010.38,3288388.68 740010.38,3288388.68 740007.69,3288387.52 740007.69,3288387.52 740004.62,3288386.17 740004.62,3288386.17 740002.00,3288385.05 740002.00,3288385.05 739998.69,3288383.61 739998.69,3288383.61 739996.04,3288382.49 739996.04,3288382.49 739992.62,3288381.02 739992.62,3288381.02 739990.16,3288379.93 739990.16,3288379.93 739987.11,3288378.65 739987.11,3288378.65 739984.51,3288377.48 739984.51,3288377.48 739982.06,3288376.42 739982.06,3288376.42 739979.62,3288375.35 739979.62,3288375.35 739977.22,3288374.30 739977.22,3288374.30 739974.87,3288373.30 739974.87,3288373.30 739972.45,3288372.23 739972.45,3288372.23 739969.82,3288371.11 739969.82,3288371.11 739967.04,3288369.88 739967.04,3288369.88 739964.54,3288368.79 739964.54,3288368.79 739962.27,3288367.78 739962.27,3288367.78 739959.43,3288366.56 739959.43,3288366.56 739956.92,3288365.41 739956.92,3288365.41 739954.33,3288364.32 739954.33,3288364.32 739951.18,3288362.89 739951.18,3288362.89 739947.38,3288361.23 739947.38,3288361.23 739943.66,3288359.58 739943.66,3288359.58 739940.32,3288358.10 739940.32,3288358.10 739935.69,3288356.02 739935.69,3288356.02 739931.50,3288354.20 739931.50,3288354.20 739927.66,3288352.49 739927.66,3288352.49 739924.53,3288351.12 739924.53,3288351.12 739921.79,3288349.86 739921.79,3288349.86 739919.05,3288348.63 739919.05,3288348.63 739915.97,3288347.21 739915.97,3288347.21 739912.39,3288345.56 739912.39,3288345.56 739909.01,3288344.06 739909.01,3288344.06 739906.09,3288342.71 739906.09,3288342.71 739903.62,3288341.60 739903.62,3288341.60 739900.46,3288340.15 739900.46,3288340.15 739897.67,3288338.90 739897.67,3288338.90 739894.86,3288337.61 739894.86,3288337.61 739890.82,3288335.79 739890.82,3288335.79 739888.03,3288334.52 739888.03,3288334.52 739885.44,3288333.32 739885.44,3288333.32 739882.89,3288332.17 739882.89,3288332.17 739879.91,3288330.83 739879.91,3288330.83 739876.73,3288329.38 739876.73,3288329.38 739873.52,3288327.91 739873.52,3288327.91 739869.78,3288326.21 739869.78,3288326.21 739866.94,3288324.92 739866.94,3288324.92 739864.02,3288323.56 739864.02,3288323.56 739859.89,3288321.67 739859.89,3288321.67 739855.16,3288319.50 739855.16,3288319.50 739852.60,3288318.35 739852.60,3288318.35 739848.63,3288316.51 739848.63,3288316.51 739844.69,3288314.75 739844.69,3288314.75 739841.29,3288313.18 739841.29,3288313.18 739837.52,3288311.49 739837.52,3288311.49 739834.36,3288310.05 739834.36,3288310.05 739831.16,3288308.60 739831.16,3288308.60 739826.97,3288306.69 739826.97,3288306.69 739823.45,3288305.10 739823.45,3288305.10 739819.91,3288303.51 739819.91,3288303.51 739808.14,3288298.13 739808.14,3288298.13 739801.47,3288295.09 739801.47,3288295.09 739788.92,3288289.40 739788.92,3288289.40 739783.78,3288287.06 739783.78,3288287.06 739779.60,3288285.17 739779.60,3288285.17 739775.54,3288283.31 739775.54,3288283.31 739770.78,3288281.16 739770.78,3288281.16 739768.10,3288279.93 739768.10,3288279.93 739763.01,3288277.65 739763.01,3288277.65 739759.31,3288275.96 739759.31,3288275.96 739752.41,3288272.83 739752.41,3288272.83 739748.70,3288271.16 739748.70,3288271.16 739746.18,3288270.01 739746.18,3288270.01 739742.83,3288268.50 739742.83,3288268.50 739740.22,3288267.30 739740.22,3288267.30 739737.19,3288265.92 739737.19,3288265.92 739734.01,3288264.45 739734.01,3288264.45 739731.65,3288263.41 739731.65,3288263.41 739727.29,3288261.39 739727.29,3288261.39 739723.38,3288259.61 739723.38,3288259.61 739719.95,3288258.05 739719.95,3288258.05 739716.01,3288256.25 739716.01,3288256.25 739712.35,3288254.57 739712.35,3288254.57 739708.94,3288253.07 739708.94,3288253.07 739706.17,3288251.81 739706.17,3288251.81 739703.62,3288250.63 739703.62,3288250.63 739699.99,3288248.98 739699.99,3288248.98 739697.04,3288247.62 739697.04,3288247.62 739694.83,3288246.62 739694.83,3288246.62 739691.72,3288245.21 739691.72,3288245.21 739688.91,3288243.95 739688.91,3288243.95 739686.02,3288242.63 739686.02,3288242.63 739683.00,3288241.26 739683.00,3288241.26 739680.36,3288240.06 739680.36,3288240.06 739677.41,3288238.73 739677.41,3288238.73 739674.26,3288237.29 739674.26,3288237.29 739671.97,3288236.26 739671.97,3288236.26 739669.69,3288235.22 739669.69,3288235.22 739667.62,3288234.30 739667.62,3288234.30 739665.32,3288233.24 739665.32,3288233.24 739663.29,3288232.31 739663.29,3288232.31 739659.59,3288230.64 739659.59,3288230.64 739651.80,3288227.05 739651.80,3288227.05 739644.47,3288223.74 739644.47,3288223.74 739639.74,3288221.64 739639.74,3288221.64 739633.09,3288218.62 739633.09,3288218.62 739629.76,3288217.07 739629.76,3288217.07 739622.22,3288213.63 739622.22,3288213.63 739613.35,3288209.58 739613.35,3288209.58 739609.35,3288207.74 739609.35,3288207.74 739604.92,3288205.76 739604.92,3288205.76 739597.97,3288202.59 739597.97,3288202.59 739595.80,3288201.62 739595.80,3288201.62 739592.74,3288200.24 739592.74,3288200.24 739589.98,3288198.97 739589.98,3288198.97 739587.55,3288197.88 739587.55,3288197.88 739584.89,3288196.68 739584.89,3288196.68 739582.78,3288195.71 739582.78,3288195.71 739580.57,3288194.72 739580.57,3288194.72 739578.19,3288193.64 739578.19,3288193.64 739575.61,3288192.45 739575.61,3288192.45 739573.06,3288191.31 739573.06,3288191.31 739570.46,3288190.14 739570.46,3288190.14 739567.60,3288188.83 739567.60,3288188.83 739564.25,3288187.32 739564.25,3288187.32 739561.81,3288186.20 739561.81,3288186.20 739559.46,3288185.12 739559.46,3288185.12 739557.16,3288184.11 739557.16,3288184.11 739554.52,3288182.89 739554.52,3288182.89 739551.99,3288181.75 739551.99,3288181.75 739546.57,3288179.27 739546.57,3288179.27 739543.66,3288177.98 739543.66,3288177.98 739540.87,3288176.71 739540.87,3288176.71 739538.58,3288175.64 739538.58,3288175.64 739535.72,3288174.36 739535.72,3288174.36 739532.81,3288173.06 739532.81,3288173.06 739529.69,3288171.64 739529.69,3288171.64 739526.57,3288170.24 739526.57,3288170.24 739524.22,3288169.14 739524.22,3288169.14 739521.24,3288167.82 739521.24,3288167.82 739518.18,3288166.44 739518.18,3288166.44 739515.32,3288165.12 739515.32,3288165.12 739512.30,3288163.77 739512.30,3288163.77 739508.96,3288162.23 739508.96,3288162.23 739506.30,3288161.05 739506.30,3288161.05 739503.25,3288159.64 739503.25,3288159.64 739500.31,3288158.30 739500.31,3288158.30 739497.33,3288156.96 739497.33,3288156.96 739494.14,3288155.49 739494.14,3288155.49 739490.96,3288154.06 739490.96,3288154.06 739487.80,3288152.62 739487.80,3288152.62 739484.83,3288151.26 739484.83,3288151.26 739482.23,3288150.09 739482.23,3288150.09 739479.04,3288148.65 739479.04,3288148.65 739476.10,3288147.27 739476.10,3288147.27 739471.77,3288145.34 739471.77,3288145.34 739468.00,3288143.61 739468.00,3288143.61 739463.95,3288141.78 739463.95,3288141.78 739459.49,3288139.75 739459.49,3288139.75 739455.74,3288138.02 739455.74,3288138.02 739452.39,3288136.52 739452.39,3288136.52 739449.80,3288135.35 739449.80,3288135.35 739447.17,3288134.14 739447.17,3288134.14 739444.75,3288133.04 739444.75,3288133.04 739442.03,3288131.80 739442.03,3288131.80 739439.17,3288130.49 739439.17,3288130.49 739436.85,3288129.45 739436.85,3288129.45 739433.83,3288128.10 739433.83,3288128.10 739431.87,3288127.22 739431.87,3288127.22 739429.76,3288126.25 739429.76,3288126.25 739425.27,3288124.16 739425.27,3288124.16 739420.79,3288122.16 739420.79,3288122.16 739417.77,3288120.76 739417.77,3288120.76 739415.17,3288119.60 739415.17,3288119.60 739412.93,3288118.57 739412.93,3288118.57 739410.51,3288117.48 739410.51,3288117.48 739408.25,3288116.45 739408.25,3288116.45 739405.81,3288115.33 739405.81,3288115.33 739403.21,3288114.17 739403.21,3288114.17 739401.25,3288113.27 739401.25,3288113.27 739394.96,3288110.38 739394.96,3288110.38 739389.61,3288107.92 739389.61,3288107.92 739380.49,3288103.79 739380.49,3288103.79 739377.84,3288102.57 739377.84,3288102.57 739375.19,3288101.40 739375.19,3288101.40 739370.55,3288099.25 739370.55,3288099.25 739367.84,3288098.05 739367.84,3288098.05 739365.37,3288096.89 739365.37,3288096.89 739362.53,3288095.63 739362.53,3288095.63 739359.66,3288094.35 739359.66,3288094.35 739356.31,3288092.82 739356.31,3288092.82 739352.92,3288091.29 739352.92,3288091.29 739350.45,3288090.15 739350.45,3288090.15 739346.53,3288088.36 739346.53,3288088.36 739343.09,3288086.81 739343.09,3288086.81 739340.03,3288085.39 739340.03,3288085.39 739336.46,3288083.78 739336.46,3288083.78 739333.60,3288082.43 739333.60,3288082.43 739330.04,3288080.83 739330.04,3288080.83 739326.03,3288079.01 739326.03,3288079.01 739322.12,3288077.21 739322.12,3288077.21 739318.85,3288075.71 739318.85,3288075.71 739314.78,3288073.90 739314.78,3288073.90 739310.37,3288071.88 739310.37,3288071.88 739306.81,3288070.24 739306.81,3288070.24 739303.88,3288068.88 739303.88,3288068.88 739300.98,3288067.56 739300.98,3288067.56 739298.50,3288066.42 739298.50,3288066.42 739295.88,3288065.21 739295.88,3288065.21 739292.63,3288063.72 739292.63,3288063.72 739288.78,3288061.96 739288.78,3288061.96 739286.50,3288060.91 739286.50,3288060.91 739283.78,3288059.67 739283.78,3288059.67 739281.76,3288058.75 739281.76,3288058.75 739278.75,3288057.37 739278.75,3288057.37 739275.45,3288055.85 739275.45,3288055.85 739272.57,3288054.53 739272.57,3288054.53 739269.92,3288053.32 739269.92,3288053.32 739266.76,3288051.84 739266.76,3288051.84 739263.64,3288050.42 739263.64,3288050.42 739260.53,3288048.97 739260.53,3288048.97 739258.32,3288047.96 739258.32,3288047.96 739255.92,3288046.85 739255.92,3288046.85 739253.62,3288045.80 739253.62,3288045.80 739251.26,3288044.68 739251.26,3288044.68 739248.00,3288043.17 739248.00,3288043.17 739245.29,3288041.96 739245.29,3288041.96 739242.72,3288040.76 739242.72,3288040.76 739239.90,3288039.46 739239.90,3288039.46 739237.55,3288038.36 739237.55,3288038.36 739235.78,3288037.55 739235.78,3288037.55 739233.35,3288036.41 739233.35,3288036.41 739230.80,3288035.23 739230.80,3288035.23 739227.78,3288033.81 739227.78,3288033.81 739225.52,3288032.77 739225.52,3288032.77 739222.86,3288031.53 739222.86,3288031.53 739220.03,3288030.22 739220.03,3288030.22 739217.16,3288028.90 739217.16,3288028.90 739214.43,3288027.61 739214.43,3288027.61 739211.48,3288026.27 739211.48,3288026.27 739209.25,3288025.25 739209.25,3288025.25 739207.13,3288024.24 739207.13,3288024.24 739204.68,3288023.09 739204.68,3288023.09 739202.16,3288021.91 739202.16,3288021.91 739199.61,3288020.70 739199.61,3288020.70 739197.09,3288019.49 739197.09,3288019.49 739195.13,3288018.57 739195.13,3288018.57 739192.91,3288017.51 739192.91,3288017.51 739190.52,3288016.36 739190.52,3288016.36 739188.52,3288015.37 739188.52,3288015.37 739185.76,3288014.02 739185.76,3288014.02 739183.78,3288013.04 739183.78,3288013.04 739181.77,3288012.04 739181.77,3288012.04 739179.62,3288010.96 739179.62,3288010.96 739177.58,3288009.93 739177.58,3288009.93 739175.67,3288008.96 739175.67,3288008.96 739173.59,3288007.87 739173.59,3288007.87 739171.30,3288006.71 739171.30,3288006.71 739169.06,3288005.55 739169.06,3288005.55 739166.97,3288004.46 739166.97,3288004.46 739164.28,3288003.05 739164.28,3288003.05 739161.76,3288001.72 739161.76,3288001.72 739159.66,3288000.61 739159.66,3288000.61 739157.64,3287999.53 739157.64,3287999.53 739155.69,3287998.46 739155.69,3287998.46 739153.30,3287997.18 739153.30,3287997.18 739150.45,3287995.62 739150.45,3287995.62 739147.79,3287994.16 739147.79,3287994.16 739142.04,3287990.93 739142.04,3287990.93 739138.17,3287988.79 739138.17,3287988.79 739136.02,3287987.56 739136.02,3287987.56 739133.75,3287986.25 739133.75,3287986.25 739128.45,3287983.20 739128.45,3287983.20 739124.17,3287980.69 739124.17,3287980.69 739120.89,3287978.74 739120.89,3287978.74 739114.23,3287974.70 739114.23,3287974.70 739111.56,3287973.05 739111.56,3287973.05 739109.42,3287971.72 739109.42,3287971.72 739106.77,3287970.06 739106.77,3287970.06 739103.37,3287967.90 739103.37,3287967.90 739100.46,3287966.00 739100.46,3287966.00 739097.71,3287964.18 739097.71,3287964.18 739095.02,3287962.41 739095.02,3287962.41 739092.15,3287960.46 739092.15,3287960.46 739089.90,3287958.91 739089.90,3287958.91 739087.55,3287957.29 739087.55,3287957.29 739085.89,3287956.14 739085.89,3287956.14 739083.87,3287954.74 739083.87,3287954.74 739081.82,3287953.29 739081.82,3287953.29 739080.10,3287952.06 739080.10,3287952.06 739078.16,3287950.68 739078.16,3287950.68 739076.29,3287949.36 739076.29,3287949.36 739074.53,3287948.08 739074.53,3287948.08 739072.93,3287946.93 739072.93,3287946.93 739070.38,3287945.05 739070.38,3287945.05 739067.50,3287942.93 739067.50,3287942.93 739065.04,3287941.11 739065.04,3287941.11 739062.52,3287939.26 739062.52,3287939.26 739060.15,3287937.44 739060.15,3287937.44 739058.11,3287935.89 739058.11,3287935.89 739056.05,3287934.35 739056.05,3287934.35 739053.01,3287931.99 739053.01,3287931.99 739050.58,3287930.12 739050.58,3287930.12 739048.27,3287928.33 739048.27,3287928.33 739046.70,3287927.11 739046.70,3287927.11 739045.72,3287926.36 739045.72,3287926.36 739043.45,3287924.57 739043.45,3287924.57 739041.31,3287922.86 739041.31,3287922.86 739038.98,3287920.98 739038.98,3287920.98 739036.65,3287919.12 739036.65,3287919.12 739034.72,3287917.55 739034.72,3287917.55 739032.77,3287915.89 739032.77,3287915.89 739030.72,3287914.25 739030.72,3287914.25 739028.77,3287912.60 739028.77,3287912.60 739027.22,3287911.29 739027.22,3287911.29 739025.58,3287909.87 739025.58,3287909.87 739023.91,3287908.44 739023.91,3287908.44 739021.97,3287906.75 739021.97,3287906.75 739020.30,3287905.29 739020.30,3287905.29 739018.45,3287903.68 739018.45,3287903.68 739016.78,3287902.26 739016.78,3287902.26 739015.10,3287900.75 739015.10,3287900.75 739013.39,3287899.27 739013.39,3287899.27 739011.76,3287897.85 739011.76,3287897.85 739009.82,3287896.17 739009.82,3287896.17 739008.36,3287894.88 739008.36,3287894.88 739006.73,3287893.47 739006.73,3287893.47 739005.10,3287892.06 739005.10,3287892.06 739001.24,3287888.67 739001.24,3287888.67 738997.19,3287885.13 738997.19,3287885.13 738990.16,3287879.03 738990.16,3287879.03 738988.48,3287877.54 738988.48,3287877.54 738986.66,3287875.95 738986.66,3287875.95 738984.61,3287874.17 738984.61,3287874.17 738982.18,3287872.05 738982.18,3287872.05 738980.41,3287870.49 738980.41,3287870.49 738978.52,3287868.80 738978.52,3287868.80 738976.81,3287867.31 738976.81,3287867.31 738975.37,3287866.01 738975.37,3287866.01 738973.48,3287864.37 738973.48,3287864.37 738971.64,3287862.73 738971.64,3287862.73 738969.60,3287860.92 738969.60,3287860.92 738968.44,3287859.88 738968.44,3287859.88 738968.02,3287859.49 738968.02,3287859.49 738966.05,3287857.75 738966.05,3287857.75 738964.12,3287856.05 738964.12,3287856.05 738961.54,3287853.76 738961.54,3287853.76 738959.54,3287851.97 738959.54,3287851.97 738956.25,3287849.03 738956.25,3287849.03 738954.85,3287847.79 738954.85,3287847.79 738953.23,3287846.37 738953.23,3287846.37 738950.92,3287844.31 738950.92,3287844.31 738948.81,3287842.43 738948.81,3287842.43 738944.82,3287838.89 738944.82,3287838.89 738941.08,3287835.55 738941.08,3287835.55 738937.79,3287832.62 738937.79,3287832.62 738933.66,3287829.00 738933.66,3287829.00 738929.73,3287825.49 738929.73,3287825.49 738926.13,3287822.29 738926.13,3287822.29 738922.86,3287819.38 738922.86,3287819.38 738918.23,3287815.22 738918.23,3287815.22 738912.62,3287810.24 738912.62,3287810.24 738905.36,3287803.80 738905.36,3287803.80 738901.98,3287800.79 738901.98,3287800.79 738896.58,3287795.97 738896.58,3287795.97 738891.32,3287791.31 738891.32,3287791.31 738888.45,3287788.77 738888.45,3287788.77 738884.71,3287785.43 738884.71,3287785.43 738881.32,3287782.41 738881.32,3287782.41 738879.10,3287780.43 738879.10,3287780.43 738875.81,3287777.52 738875.81,3287777.52 738872.59,3287774.64 738872.59,3287774.64 738869.45,3287771.85 738869.45,3287771.85 738866.75,32877