<?xml version='1.0' encoding='utf-8'?>
<nodes>
    <node id="node_149_start" x="738540.8377036542" y="3287479.8137174738" type="priority" />
    <node id="node_149_end" x="738500.1111411536" y="3287448.88305341" type="priority" />
    <node id="node_150_start" x="738227.9822349036" y="3287325.4221159085" type="priority" />
    <node id="node_150_end" x="737817.7673911528" y="3287185.956295597" type="priority" />
    <node id="node_152_start" x="737717.126766154" y="3287176.895748721" type="priority" />
    <node id="node_152_end" x="737584.9234799496" y="3287180.5880574128" type="priority" />
    <node id="node_153_start" x="740769.7813266538" y="3288726.2415158255" type="priority" />
    <node id="node_153_end" x="738574.536922402" y="3287508.8137174724" type="priority" />
    <node id="node_154_start" x="738372.6423911541" y="3287380.87914716" type="priority" />
    <node id="node_154_end" x="738321.048863797" y="3287361.0245823553" type="priority" />
    <node id="node_160_end" x="735494.9441112031" y="3287326.187492036" type="priority" />
    <node id="node_163_start" x="738571.1294649432" y="3287511.922509111" type="priority" />
    <node id="node_163_end" x="738535.0357703271" y="3287486.1259316173" type="priority" />
    <node id="node_168_start" x="737919.2137721853" y="3287233.260860908" type="priority" />
    <node id="node_172_start" x="732846.0586814368" y="3287260.957424748" type="priority" />
    <node id="node_174_end" x="731614.4999077264" y="3287216.381412568" type="priority" />
    <node id="node_177_end" x="732846.0681724045" y="3287250.925045598" type="priority" />
    <node id="node_179_end" x="735117.1693992084" y="3287338.2310759295" type="priority" />
    <node id="node_180_end" x="733121.7081870518" y="3287324.0485798013" type="priority" />
    <node id="node_184_start" x="734545.1931724036" y="3287299.284420598" type="priority" />
    <node id="node_185_start" x="734545.0849265817" y="3287309.470120031" type="priority" />
    <node id="node_190_start" x="734686.3331261369" y="3287368.459591914" type="priority" />
    <node id="node_192_start" x="733329.062528322" y="3287264.587024713" type="priority" />
    <node id="node_193_end" x="733387.1056631829" y="3287266.1627361006" type="priority" />
    <node id="node_194_start" x="732969.725154707" y="3287319.918361295" type="priority" />
    <node id="node_253_start" x="733387.122133152" y="3287269.867887177" type="priority" />
    <node id="node_253_end" x="733328.928625216" y="3287271.568038052" type="priority" />
    <node id="node_895_end" x="738061.2975158233" y="3287297.0673794635" type="priority" />
    <node id="node_899_end" x="738048.9541350782" y="3287315.780019561" type="priority" />
    <node id="junction_63" x="0.0" y="0.0" type="priority" />
    <node id="junction_1" x="0.0" y="0.0" type="priority" />
    <node id="junction_70" x="0.0" y="0.0" type="priority" />
    <node id="junction_2" x="0.0" y="0.0" type="priority" />
    <node id="junction_6" x="0.0" y="0.0" type="priority" />
    <node id="junction_9" x="0.0" y="0.0" type="priority" />
    <node id="junction_64" x="0.0" y="0.0" type="priority" />
    <node id="junction_10" x="0.0" y="0.0" type="priority" />
    <node id="junction_75" x="0.0" y="0.0" type="priority" />
    <node id="junction_3" x="0.0" y="0.0" type="priority" />
    <node id="junction_16" x="0.0" y="0.0" type="priority" />
    <node id="junction_78" x="0.0" y="0.0" type="priority" />
    <node id="junction_79" x="0.0" y="0.0" type="priority" />
    <node id="junction_17" x="0.0" y="0.0" type="priority" />
    <node id="junction_19" x="0.0" y="0.0" type="priority" />
    <node id="junction_18" x="0.0" y="0.0" type="priority" />
    <node id="junction_76" x="0.0" y="0.0" type="priority" />
    <node id="junction_84" x="0.0" y="0.0" type="priority" />
    <node id="junction_65" x="0.0" y="0.0" type="priority" />
    <node id="junction_85" x="0.0" y="0.0" type="priority" />
    <node id="junction_55" x="0.0" y="0.0" type="priority" />
    <node id="junction_86" x="0.0" y="0.0" type="priority" />
    <node id="junction_81" x="0.0" y="0.0" type="priority" />
    <node id="junction_21" x="0.0" y="0.0" type="priority" />
    <node id="junction_82" x="0.0" y="0.0" type="priority" />
    <node id="junction_22" x="0.0" y="0.0" type="priority" />
    <node id="junction_80" x="0.0" y="0.0" type="priority" />
    <node id="junction_20" x="0.0" y="0.0" type="priority" />
    <node id="junction_4" x="0.0" y="0.0" type="priority" />
    <node id="junction_23" x="0.0" y="0.0" type="priority" />
    <node id="junction_83" x="0.0" y="0.0" type="priority" />
    <node id="junction_66" x="0.0" y="0.0" type="priority" />
    <node id="junction_24" x="0.0" y="0.0" type="priority" />
    <node id="junction_88" x="0.0" y="0.0" type="priority" />
    <node id="junction_26" x="0.0" y="0.0" type="priority" />
    <node id="junction_27" x="0.0" y="0.0" type="priority" />
    <node id="junction_28" x="0.0" y="0.0" type="priority" />
    <node id="junction_91" x="0.0" y="0.0" type="priority" />
    <node id="junction_29" x="0.0" y="0.0" type="priority" />
    <node id="junction_92" x="0.0" y="0.0" type="priority" />
    <node id="junction_30" x="0.0" y="0.0" type="priority" />
    <node id="junction_31" x="0.0" y="0.0" type="priority" />
    <node id="junction_32" x="0.0" y="0.0" type="priority" />
    <node id="junction_96" x="0.0" y="0.0" type="priority" />
    <node id="junction_33" x="0.0" y="0.0" type="priority" />
    <node id="junction_98" x="0.0" y="0.0" type="priority" />
    <node id="junction_99" x="0.0" y="0.0" type="priority" />
    <node id="junction_100" x="0.0" y="0.0" type="priority" />
    <node id="junction_37" x="0.0" y="0.0" type="priority" />
    <node id="junction_36" x="0.0" y="0.0" type="priority" />
    <node id="junction_35" x="0.0" y="0.0" type="priority" />
    <node id="junction_97" x="0.0" y="0.0" type="priority" />
    <node id="junction_87" x="0.0" y="0.0" type="priority" />
    <node id="junction_89" x="0.0" y="0.0" type="priority" />
    <node id="junction_90" x="0.0" y="0.0" type="priority" />
    <node id="junction_93" x="0.0" y="0.0" type="priority" />
    <node id="junction_94" x="0.0" y="0.0" type="priority" />
    <node id="junction_95" x="0.0" y="0.0" type="priority" />
    <node id="junction_34" x="0.0" y="0.0" type="priority" />
    <node id="junction_38" x="0.0" y="0.0" type="priority" />
    <node id="junction_39" x="0.0" y="0.0" type="priority" />
    <node id="junction_40" x="0.0" y="0.0" type="priority" />
    <node id="junction_102" x="0.0" y="0.0" type="priority" />
    <node id="junction_103" x="0.0" y="0.0" type="priority" />
    <node id="junction_106" x="0.0" y="0.0" type="priority" />
    <node id="junction_42" x="0.0" y="0.0" type="priority" />
    <node id="junction_104" x="0.0" y="0.0" type="priority" />
    <node id="junction_41" x="0.0" y="0.0" type="priority" />
    <node id="junction_43" x="0.0" y="0.0" type="priority" />
    <node id="junction_44" x="0.0" y="0.0" type="priority" />
    <node id="junction_45" x="0.0" y="0.0" type="priority" />
    <node id="junction_108" x="0.0" y="0.0" type="priority" />
    <node id="junction_46" x="0.0" y="0.0" type="priority" />
    <node id="junction_68" x="0.0" y="0.0" type="priority" />
    <node id="junction_47" x="0.0" y="0.0" type="priority" />
    <node id="junction_49" x="0.0" y="0.0" type="priority" />
    <node id="junction_111" x="0.0" y="0.0" type="priority" />
    <node id="junction_112" x="0.0" y="0.0" type="priority" />
    <node id="junction_50" x="0.0" y="0.0" type="priority" />
    <node id="junction_113" x="0.0" y="0.0" type="priority" />
    <node id="junction_52" x="0.0" y="0.0" type="priority" />
    <node id="junction_51" x="0.0" y="0.0" type="priority" />
    <node id="junction_53" x="0.0" y="0.0" type="priority" />
    <node id="junction_116" x="0.0" y="0.0" type="priority" />
    <node id="junction_115" x="0.0" y="0.0" type="priority" />
    <node id="junction_54" x="0.0" y="0.0" type="priority" />
    <node id="junction_48" x="0.0" y="0.0" type="priority" />
    <node id="junction_117" x="0.0" y="0.0" type="priority" />
    <node id="junction_101" x="0.0" y="0.0" type="priority" />
    <node id="junction_105" x="0.0" y="0.0" type="priority" />
    <node id="junction_107" x="0.0" y="0.0" type="priority" />
    <node id="junction_109" x="0.0" y="0.0" type="priority" />
    <node id="junction_110" x="0.0" y="0.0" type="priority" />
    <node id="junction_114" x="0.0" y="0.0" type="priority" />
    <node id="junction_13" x="0.0" y="0.0" type="priority" />
    <node id="junction_7" x="0.0" y="0.0" type="priority" />
    <node id="junction_15" x="0.0" y="0.0" type="priority" />
    <node id="junction_119" x="0.0" y="0.0" type="priority" />
    <node id="junction_120" x="0.0" y="0.0" type="priority" />
    <node id="junction_56" x="0.0" y="0.0" type="priority" />
    <node id="junction_118" x="0.0" y="0.0" type="priority" />
    <node id="junction_121" x="0.0" y="0.0" type="priority" />
    <node id="junction_61" x="0.0" y="0.0" type="priority" />
    <node id="junction_122" x="0.0" y="0.0" type="priority" />
    <node id="junction_8" x="0.0" y="0.0" type="priority" />
    <node id="junction_62" x="0.0" y="0.0" type="priority" />
    <node id="junction_71" x="0.0" y="0.0" type="priority" />
    <node id="junction_57" x="0.0" y="0.0" type="priority" />
    <node id="junction_5" x="0.0" y="0.0" type="priority" />
    <node id="junction_123" x="0.0" y="0.0" type="priority" />
    <node id="junction_25" x="0.0" y="0.0" type="priority" />
    <node id="junction_124" x="0.0" y="0.0" type="priority" />
    <node id="junction_58" x="0.0" y="0.0" type="priority" />
    <node id="junction_59" x="0.0" y="0.0" type="priority" />
    <node id="junction_125" x="0.0" y="0.0" type="priority" />
    <node id="junction_126" x="0.0" y="0.0" type="priority" />
    <node id="junction_60" x="0.0" y="0.0" type="priority" />
    <node id="junction_127" x="0.0" y="0.0" type="priority" />
    <node id="junction_11" x="737789.7080664156" y="3287186.1482851417" type="priority" />
    <node id="junction_77" x="733284.6156516563" y="3287266.6831327043" type="priority" />
    <node id="junction_72" x="738083.8160287781" y="3287306.726427547" type="priority" />
    <node id="j_merge_start_14" x="734397.0887539422" y="3287295.0870725894" type="priority" />
    <node id="j_merge_end_14" x="734234.0408286538" y="3287290.4172330988" type="priority" />
    <node id="j_merge_start_12" x="732790.8027292078" y="3287249.3566907677" type="priority" />
    <node id="j_merge_end_12" x="732611.3985654402" y="3287244.474017469" type="priority" />
    <node id="junction_73" x="738244.83249532" y="3287335.5998502844" type="priority" />
    <node id="junction_74" x="735332.0374913375" y="3287324.933510928" type="priority" />
</nodes>