<?xml version='1.0' encoding='utf-8'?>
<connections>
    <connection from="161.0" to="165.0" fromLane="0" toLane="1" />
    <connection from="161.0" to="165.0" fromLane="1" toLane="2" />
    <connection from="181.0" to="merge_zone_12" fromLane="1" toLane="2" />
    <connection from="181.0" to="merge_zone_12" fromLane="0" toLane="1" />
    <connection from="merge_zone_12" to="174.0" fromLane="2" toLane="2" />
    <connection from="merge_zone_12" to="174.0" fromLane="1" toLane="1" />
    <connection from="172.0" to="merge_zone_12" fromLane="0" toLane="0" />
    <connection from="merge_zone_12" to="174.0" fromLane="0" toLane="2" dir="r" state="m" />
    <connection from="185.0" to="merge_zone_14" fromLane="0" toLane="0" />
    <connection from="merge_zone_14" to="193.0" fromLane="0" toLane="1" dir="r" state="m" />
    <connection from="184.0" to="merge_zone_14" fromLane="1" toLane="2" />
    <connection from="184.0" to="merge_zone_14" fromLane="0" toLane="1" />
    <connection from="merge_zone_14" to="193.0" fromLane="2" toLane="1" />
    <connection from="merge_zone_14" to="193.0" fromLane="1" toLane="0" />
    <connection from="147.0" to="899.0" fromLane="1" toLane="0" />
    <connection from="147.0" to="895.0" fromLane="1" toLane="0" />
    <connection from="167.0" to="147.0" fromLane="1" toLane="1" />
    <connection from="167.0" to="147.0" fromLane="0" toLane="0" />
    <connection from="167.0" to="157.0" fromLane="3" toLane="1" />
    <connection from="167.0" to="157.0" fromLane="2" toLane="0" />
    <connection from="171.0" to="179.0" fromLane="1" toLane="1" />
    <connection from="171.0" to="179.0" fromLane="0" toLane="0" />
    <connection from="171.0" to="195.0" fromLane="2" toLane="1" />
    <connection from="171.0" to="195.0" fromLane="3" toLane="2" />
    <connection from="192.0" to="177.0" fromLane="2" toLane="2" />
    <connection from="192.0" to="177.0" fromLane="1" toLane="1" />
    <connection from="192.0" to="180.0" fromLane="0" toLane="0" />
</connections>