<?xml version="1.0" encoding="UTF-8"?>

<!-- generated on 2025-10-19 17:35:18 by Eclipse SUMO netconvert Version 1.23.1
<netconvertConfiguration xmlns:xsi="http://www.w3.org/2001/XMLSchema-instance" xsi:noNamespaceSchemaLocation="http://sumo.dlr.de/xsd/netconvertConfiguration.xsd">

    <input>
        <node-files value="/home/sdai/harry/TeraSim/jupiter/eb/jupiter_eb_tiles/tile_0119/tile_0119.nod.xml"/>
        <edge-files value="/home/sdai/harry/TeraSim/jupiter/eb/jupiter_eb_tiles/tile_0119/tile_0119.edg.xml"/>
    </input>

    <output>
        <output-file value="/home/sdai/harry/TeraSim/jupiter/eb/jupiter_eb_tiles/tile_0119/tile_0119.net.xml"/>
        <output.street-names value="true"/>
        <output.original-names value="true"/>
    </output>

    <processing>
        <geometry.remove value="false"/>
        <geometry.min-dist value="0.5"/>
        <edges.join value="false"/>
    </processing>

    <junctions>
        <no-internal-links value="false"/>
        <no-turnarounds value="true"/>
        <junctions.join value="true"/>
        <junctions.join-dist value="10"/>
        <junctions.corner-detail value="5"/>
        <junctions.internal-link-detail value="5"/>
        <junctions.limit-turn-speed value="5.5"/>
        <rectangular-lane-cut value="true"/>
        <check-lane-foes.all value="true"/>
    </junctions>

</netconvertConfiguration>
-->

<net version="1.20" junctionCornerDetail="5" junctionLinkDetail="5" rectangularLaneCut="true" limitTurnSpeed="5.50" checkLaneFoesAll="1" xmlns:xsi="http://www.w3.org/2001/XMLSchema-instance" xsi:noNamespaceSchemaLocation="http://sumo.dlr.de/xsd/net_file.xsd">

    <location netOffset="-748062.18,-3290542.93" convBoundary="0.00,0.00,9873.45,2513.71" origBoundary="0.00,0.00,757935.63,3293056.64" projParameter="!"/>

    <edge id=":junction_112_0" function="internal">
        <lane id=":junction_112_0_0" index="0" speed="13.89" length="47.25" width="3.66" shape="3354.61,841.77 3367.42,843.63 3381.78,844.16 3394.33,844.19 3401.71,844.52"/>
    </edge>
    <edge id=":junction_52_0" function="internal">
        <lane id=":junction_52_0_0" index="0" speed="13.89" length="147.26" width="3.66" shape="5326.09,1339.38 5467.72,1379.72"/>
    </edge>
    <edge id=":junction_52_1" function="internal">
        <lane id=":junction_52_1_0" index="0" speed="13.89" length="147.18" width="3.66" shape="5325.17,1343.11 5467.72,1379.72"/>
        <lane id=":junction_52_1_1" index="1" speed="13.89" length="147.18" width="3.66" shape="5324.25,1346.65 5466.81,1383.26"/>
    </edge>
    <edge id=":node_651_end_0" function="internal">
        <lane id=":node_651_end_0_0" index="0" speed="13.89" length="0.30" width="3.66" shape="1469.75,370.90 1470.03,370.97"/>
        <lane id=":node_651_end_0_1" index="1" speed="13.89" length="0.30" width="3.66" shape="1468.83,374.44 1469.12,374.52"/>
    </edge>
    <edge id=":node_654_end_0" function="internal">
        <lane id=":node_654_end_0_0" index="0" speed="13.89" length="0.30" width="3.66" shape="6849.70,1731.85 6849.99,1731.92"/>
        <lane id=":node_654_end_0_1" index="1" speed="13.89" length="0.30" width="3.66" shape="6848.79,1735.39 6849.08,1735.47"/>
    </edge>
    <edge id=":node_654_start_0" function="internal">
        <lane id=":node_654_start_0_0" index="0" speed="13.89" length="0.30" width="3.66" shape="6795.02,1717.79 6795.31,1717.86"/>
        <lane id=":node_654_start_0_1" index="1" speed="13.89" length="0.30" width="3.66" shape="6794.11,1721.33 6794.40,1721.41"/>
    </edge>
    <edge id=":node_655_end_0" function="internal">
        <lane id=":node_655_end_0_0" index="0" speed="13.89" length="2.99" width="3.66" shape="5743.88,1447.94 5746.80,1448.69"/>
        <lane id=":node_655_end_0_1" index="1" speed="13.89" length="2.99" width="3.66" shape="5743.00,1451.49 5745.87,1452.23"/>
    </edge>
    <edge id=":node_655_start_0" function="internal">
        <lane id=":node_655_start_0_0" index="0" speed="13.89" length="0.30" width="3.66" shape="5517.12,1392.46 5517.40,1392.53"/>
        <lane id=":node_655_start_0_1" index="1" speed="13.89" length="0.30" width="3.66" shape="5516.20,1396.00 5516.50,1396.08"/>
    </edge>
    <edge id=":node_656_end_0" function="internal">
        <lane id=":node_656_end_0_0" index="0" speed="13.89" length="0.30" width="3.66" shape="2170.97,550.56 2171.26,550.63"/>
        <lane id=":node_656_end_0_1" index="1" speed="13.89" length="0.30" width="3.66" shape="2170.06,554.10 2170.35,554.18"/>
    </edge>
    <edge id=":node_656_start_0" function="internal">
        <lane id=":node_656_start_0_0" index="0" speed="13.89" length="0.30" width="3.66" shape="2136.55,541.67 2136.84,541.74"/>
        <lane id=":node_656_start_0_1" index="1" speed="13.89" length="0.30" width="3.66" shape="2135.64,545.21 2135.93,545.29"/>
    </edge>
    <edge id=":node_657_start_0" function="internal">
        <lane id=":node_657_start_0_0" index="0" speed="13.89" length="0.30" width="3.66" shape="2006.13,507.89 2006.43,507.96"/>
        <lane id=":node_657_start_0_1" index="1" speed="13.89" length="0.30" width="3.66" shape="2005.20,511.43 2005.49,511.50"/>
    </edge>
    <edge id=":node_658_end_0" function="internal">
        <lane id=":node_658_end_0_0" index="0" speed="13.89" length="0.30" width="3.66" shape="1711.56,432.75 1711.86,432.82"/>
        <lane id=":node_658_end_0_1" index="1" speed="13.89" length="0.30" width="3.66" shape="1710.66,436.29 1710.95,436.37"/>
    </edge>
    <edge id=":node_658_start_0" function="internal">
        <lane id=":node_658_start_0_0" index="0" speed="13.89" length="0.30" width="3.66" shape="1629.71,411.76 1630.00,411.83"/>
        <lane id=":node_658_start_0_1" index="1" speed="13.89" length="0.30" width="3.66" shape="1628.80,415.30 1629.09,415.38"/>
    </edge>
    <edge id=":node_660_end_0" function="internal">
        <lane id=":node_660_end_0_0" index="0" speed="13.89" length="3.00" width="3.66" shape="7001.08,1770.73 7003.97,1771.46"/>
        <lane id=":node_660_end_0_1" index="1" speed="13.89" length="3.00" width="3.66" shape="7000.17,1774.27 7003.09,1775.01"/>
    </edge>
    <edge id=":node_661_end_0" function="internal">
        <lane id=":node_661_end_0_0" index="0" speed="13.89" length="0.30" width="3.66" shape="1793.81,453.92 1794.10,453.99"/>
        <lane id=":node_661_end_0_1" index="1" speed="13.89" length="0.30" width="3.66" shape="1792.90,457.46 1793.19,457.54"/>
    </edge>
    <edge id=":node_662_start_0" function="internal">
        <lane id=":node_662_start_0_0" index="0" speed="13.89" length="0.30" width="3.66" shape="1550.30,391.41 1550.59,391.48"/>
        <lane id=":node_662_start_0_1" index="1" speed="13.89" length="0.30" width="3.66" shape="1549.40,394.95 1549.69,395.03"/>
    </edge>
    <edge id=":node_664_end_0" function="internal">
        <lane id=":node_664_end_0_0" index="0" speed="13.89" length="0.30" width="3.66" shape="2272.45,576.45 2272.75,576.52"/>
        <lane id=":node_664_end_0_1" index="1" speed="13.89" length="0.30" width="3.66" shape="2271.55,579.99 2271.84,580.07"/>
    </edge>
    <edge id=":node_665_end_0" function="internal">
        <lane id=":node_665_end_0_0" index="0" speed="13.89" length="0.30" width="3.66" shape="2459.45,624.28 2459.74,624.35"/>
        <lane id=":node_665_end_0_1" index="1" speed="13.89" length="0.30" width="3.66" shape="2458.54,627.82 2458.83,627.90"/>
    </edge>
    <edge id=":node_666_end_0" function="internal">
        <lane id=":node_666_end_0_0" index="0" speed="13.89" length="0.30" width="3.66" shape="2637.14,669.01 2637.41,669.08"/>
        <lane id=":node_666_end_0_1" index="1" speed="13.89" length="0.30" width="3.66" shape="2636.29,672.58 2636.60,672.65"/>
    </edge>
    <edge id=":node_669_end_0" function="internal">
        <lane id=":node_669_end_0_0" index="0" speed="13.89" length="0.30" width="3.66" shape="9108.00,2310.80 9108.29,2310.88"/>
        <lane id=":node_669_end_0_1" index="1" speed="13.89" length="0.30" width="3.66" shape="9107.03,2314.33 9107.32,2314.41"/>
    </edge>
    <edge id=":node_669_start_0" function="internal">
        <lane id=":node_669_start_0_0" index="0" speed="13.89" length="0.10" width="3.66" shape="8837.09,2226.15 8837.09,2226.15"/>
        <lane id=":node_669_start_0_1" index="1" speed="13.89" length="0.10" width="3.66" shape="8835.94,2229.63 8835.94,2229.63"/>
    </edge>
    <edge id=":node_674_start_0" function="internal">
        <lane id=":node_674_start_0_0" index="0" speed="13.89" length="0.10" width="3.66" shape="7297.93,1831.70 7297.93,1831.70"/>
        <lane id=":node_674_start_0_1" index="1" speed="13.89" length="0.10" width="3.66" shape="7297.28,1835.30 7297.28,1835.30"/>
    </edge>
    <edge id=":node_906_end_0" function="internal">
        <lane id=":node_906_end_0_0" index="0" speed="13.89" length="71.50" width="3.66" shape="3143.59,783.93 3213.71,797.91"/>
    </edge>
    <edge id=":node_906_end_1" function="internal">
        <lane id=":node_906_end_1_0" index="0" speed="13.89" length="71.40" width="3.66" shape="3143.59,783.93 3212.77,801.63"/>
        <lane id=":node_906_end_1_1" index="1" speed="13.89" length="71.40" width="3.66" shape="3142.68,787.47 3211.86,805.17"/>
    </edge>
    <edge id=":node_907_end_0" function="internal">
        <lane id=":node_907_end_0_0" index="0" speed="13.89" length="4.27" width="3.66" shape="3212.96,801.68 3216.00,798.68"/>
        <lane id=":node_907_end_0_1" index="1" speed="13.89" length="4.27" width="3.66" shape="3212.05,805.22 3215.09,802.22"/>
    </edge>
    <edge id=":node_907_end_2" function="internal">
        <lane id=":node_907_end_2_0" index="0" speed="13.89" length="7.83" width="3.66" shape="3213.91,797.95 3214.19,805.77"/>
    </edge>
    <edge id=":node_916_end_0" function="internal">
        <lane id=":node_916_end_0_0" index="0" speed="13.89" length="0.30" width="3.66" shape="5280.13,1326.47 5280.42,1326.55"/>
    </edge>

    <edge id="651.0" from="node_651_start" to="node_651_end" priority="-1" type="town" shape="0.00,0.00 30.18,7.71 96.47,24.56 173.57,44.34 241.82,61.84 336.15,86.14 450.72,115.53 511.59,131.01 592.23,151.68 633.44,162.87 674.64,174.76 708.12,183.86 741.33,192.56 791.53,205.38 841.76,217.39 892.83,229.08 943.84,241.69 1050.86,269.18 1127.04,288.77 1201.33,307.87 1258.02,322.40 1304.36,334.20 1381.69,353.91 1439.33,368.69 1468.52,376.25">
        <lane id="651.0_0" index="0" speed="13.89" length="1515.87" width="3.66" shape="1.36,-5.32 31.53,2.39 97.83,19.24 174.93,39.03 243.19,56.53 337.52,80.83 452.08,110.21 512.95,125.69 593.63,146.38 634.92,157.59 676.12,169.48 709.54,178.56 742.70,187.25 792.85,200.05 843.01,212.05 894.10,223.74 945.18,236.37 1052.23,263.87 1128.41,283.46 1202.70,302.56 1259.38,317.08 1305.72,328.88 1383.05,348.59 1440.70,363.38 1469.75,370.90"/>
        <lane id="651.0_1" index="1" speed="13.89" length="1515.87" width="3.66" shape="0.45,-1.77 30.63,5.94 96.92,22.79 174.02,42.57 242.28,60.07 336.61,84.37 451.17,113.76 512.04,129.24 592.70,149.91 633.93,161.11 675.13,173.00 708.59,182.10 741.79,190.79 791.97,203.61 842.18,215.61 893.25,227.30 944.29,239.92 1051.32,267.41 1127.50,287.00 1201.79,306.10 1258.47,320.63 1304.81,332.43 1382.14,352.14 1439.79,366.92 1468.83,374.44"/>
    </edge>
    <edge id="654.0" from="node_654_start" to="node_654_end" priority="-1" type="town">
        <lane id="654.0_0" index="0" disallow="all" speed="13.89" length="56.16" width="3.66" shape="6796.22,1714.32 6850.61,1728.30" type="shoulder"/>
        <lane id="654.0_1" index="1" speed="13.89" length="56.16" width="3.66" shape="6795.31,1717.86 6849.70,1731.85"/>
        <lane id="654.0_2" index="2" speed="13.89" length="56.16" width="3.66" shape="6794.40,1721.41 6848.79,1735.39"/>
    </edge>
    <edge id="655.0" from="node_655_start" to="node_655_end" priority="-1" type="town" shape="5515.90,1397.81 5539.66,1403.81 5577.18,1413.22 5613.89,1421.97 5637.06,1427.40 5660.19,1432.98 5700.38,1442.78 5743.98,1453.62">
        <lane id="655.0_0" index="0" speed="13.89" length="233.17" width="3.66" shape="5517.40,1392.53 5541.00,1398.49 5578.48,1407.89 5615.16,1416.63 5638.33,1422.06 5661.48,1427.65 5701.69,1437.45 5743.88,1447.94"/>
        <lane id="655.0_1" index="1" speed="13.89" length="233.17" width="3.66" shape="5516.50,1396.08 5540.11,1402.04 5577.61,1411.45 5614.31,1420.19 5637.48,1425.62 5660.62,1431.21 5700.82,1441.01 5743.00,1451.49"/>
    </edge>
    <edge id="656.0" from="node_656_start" to="node_656_end" priority="-1" type="town">
        <lane id="656.0_0" index="0" speed="13.89" length="35.25" width="3.66" shape="2136.84,541.74 2170.97,550.56"/>
        <lane id="656.0_1" index="1" speed="13.89" length="35.25" width="3.66" shape="2135.93,545.29 2170.06,554.10"/>
    </edge>
    <edge id="657.0" from="node_657_start" to="node_656_start" priority="-1" type="town" shape="2004.88,513.23 2060.25,527.88 2135.33,547.02">
        <lane id="657.0_0" index="0" speed="13.89" length="134.43" width="3.66" shape="2006.43,507.96 2061.63,522.57 2136.55,541.67"/>
        <lane id="657.0_1" index="1" speed="13.89" length="134.43" width="3.66" shape="2005.49,511.50 2060.71,526.11 2135.64,545.21"/>
    </edge>
    <edge id="658.0" from="node_658_start" to="node_658_end" priority="-1" type="town" shape="1628.49,417.11 1677.22,429.66 1710.35,438.10">
        <lane id="658.0_0" index="0" speed="13.89" length="84.20" width="3.66" shape="1630.00,411.83 1678.58,424.35 1711.56,432.75"/>
        <lane id="658.0_1" index="1" speed="13.89" length="84.20" width="3.66" shape="1629.09,415.38 1677.67,427.89 1710.66,436.29"/>
    </edge>
    <edge id="659.0" from="node_655_end" to="node_654_start" priority="-1" type="town" shape="5743.98,1453.62 5789.58,1465.69 5825.13,1474.94 5871.80,1486.81 5919.77,1499.09 5990.22,1517.16 6096.86,1544.50 6203.68,1571.89 6298.92,1596.20 6380.47,1617.03 6487.41,1644.56 6546.99,1659.87 6618.10,1678.09 6689.20,1696.31 6736.30,1708.39 6793.80,1723.14">
        <lane id="659.0_0" index="0" disallow="all" speed="13.89" length="1082.21" width="3.66" shape="5747.74,1445.15 5791.90,1456.84 5827.41,1466.08 5874.06,1477.95 5922.04,1490.23 5992.49,1508.30 6099.13,1535.64 6205.95,1563.03 6301.18,1587.34 6382.74,1608.17 6489.69,1635.70 6549.26,1651.01 6620.37,1669.23 6691.47,1687.45 6738.57,1699.53 6795.93,1714.24" type="shoulder"/>
        <lane id="659.0_1" index="1" speed="13.89" length="1082.21" width="3.66" shape="5746.80,1448.69 5790.97,1460.38 5826.50,1469.63 5873.16,1481.49 5921.13,1493.78 5991.58,1511.85 6098.22,1539.19 6205.04,1566.58 6300.28,1590.88 6381.83,1611.72 6488.78,1639.25 6548.35,1654.56 6619.46,1672.78 6690.56,1691.00 6737.66,1703.08 6795.02,1717.79"/>
        <lane id="659.0_2" index="2" speed="13.89" length="1082.21" width="3.66" shape="5745.87,1452.23 5790.04,1463.92 5825.59,1473.17 5872.25,1485.04 5920.22,1497.32 5990.67,1515.39 6097.31,1542.73 6204.13,1570.12 6299.37,1594.43 6380.92,1615.26 6487.87,1642.79 6547.44,1658.10 6618.55,1676.32 6689.65,1694.54 6736.75,1706.62 6794.11,1721.33"/>
    </edge>
    <edge id="660.0" from="node_654_end" to="node_660_end" priority="-1" type="town" shape="6848.48,1737.20 6854.19,1738.67 6869.56,1742.58 6890.66,1748.00 6937.12,1760.00 6971.99,1768.90 7001.18,1776.42">
        <lane id="660.0_0" index="0" disallow="all" speed="13.89" length="155.99" width="3.66" shape="6850.91,1728.38 6856.45,1729.81 6871.83,1733.72 6892.94,1739.14 6939.40,1751.14 6974.26,1760.04 7002.00,1767.19" type="shoulder"/>
        <lane id="660.0_1" index="1" speed="13.89" length="155.99" width="3.66" shape="6849.99,1731.92 6855.55,1733.35 6870.92,1737.27 6892.03,1742.69 6938.49,1754.69 6973.35,1763.59 7001.08,1770.73"/>
        <lane id="660.0_2" index="2" speed="13.89" length="155.99" width="3.66" shape="6849.08,1735.47 6854.64,1736.90 6870.01,1740.81 6891.12,1746.23 6937.58,1758.23 6972.44,1767.13 7000.17,1774.27"/>
    </edge>
    <edge id="661.0" from="node_658_end" to="node_661_end" priority="-1" type="town" shape="1710.35,438.10 1741.40,446.06 1792.59,459.27">
        <lane id="661.0_0" index="0" speed="13.89" length="84.63" width="3.66" shape="1711.86,432.82 1742.77,440.75 1793.81,453.92"/>
        <lane id="661.0_1" index="1" speed="13.89" length="84.63" width="3.66" shape="1710.95,436.37 1741.86,444.29 1792.90,457.46"/>
    </edge>
    <edge id="662.0" from="node_662_start" to="node_658_start" priority="-1" type="town" shape="1549.10,396.76 1569.31,401.89 1628.49,417.11">
        <lane id="662.0_0" index="0" speed="13.89" length="81.67" width="3.66" shape="1550.59,391.48 1570.67,396.57 1629.71,411.76"/>
        <lane id="662.0_1" index="1" speed="13.89" length="81.67" width="3.66" shape="1549.69,395.03 1569.76,400.12 1628.80,415.30"/>
    </edge>
    <edge id="663.0" from="node_661_end" to="node_657_start" priority="-1" type="town" shape="1792.59,459.27 1833.26,469.65 1876.58,480.83 1978.90,506.42 2004.88,513.23">
        <lane id="663.0_0" index="0" speed="13.89" length="218.77" width="3.66" shape="1794.10,453.99 1834.62,464.34 1877.93,475.51 1980.26,501.11 2006.13,507.89"/>
        <lane id="663.0_1" index="1" speed="13.89" length="218.77" width="3.66" shape="1793.19,457.54 1833.71,467.88 1877.03,479.06 1979.35,504.65 2005.20,511.43"/>
    </edge>
    <edge id="664.0" from="node_656_end" to="node_664_end" priority="-1" type="town" shape="2169.75,555.91 2230.05,571.28 2271.24,581.80">
        <lane id="664.0_0" index="0" speed="13.89" length="104.44" width="3.66" shape="2171.26,550.63 2231.41,565.96 2272.45,576.45"/>
        <lane id="664.0_1" index="1" speed="13.89" length="104.44" width="3.66" shape="2170.35,554.18 2230.50,569.51 2271.55,579.99"/>
    </edge>
    <edge id="665.0" from="node_664_end" to="node_665_end" priority="-1" type="town" shape="2271.24,581.80 2323.40,595.15 2396.87,614.01 2438.66,624.62 2458.23,629.63">
        <lane id="665.0_0" index="0" speed="13.89" length="192.72" width="3.66" shape="2272.75,576.52 2324.76,589.84 2398.23,608.69 2440.01,619.30 2459.45,624.28"/>
        <lane id="665.0_1" index="1" speed="13.89" length="192.72" width="3.66" shape="2271.84,580.07 2323.85,593.38 2397.32,612.24 2439.11,622.85 2458.54,627.82"/>
    </edge>
    <edge id="666.0" from="node_665_end" to="node_666_end" priority="-1" type="town" shape="2458.23,629.63 2527.57,647.52 2568.31,657.90 2610.03,668.25 2636.03,674.39">
        <lane id="666.0_0" index="0" speed="13.89" length="182.97" width="3.66" shape="2459.74,624.35 2528.93,642.21 2569.65,652.58 2611.32,662.92 2637.14,669.01"/>
        <lane id="666.0_1" index="1" speed="13.89" length="182.97" width="3.66" shape="2458.83,627.90 2528.02,645.75 2568.76,656.13 2610.46,666.48 2636.29,672.58"/>
    </edge>
    <edge id="667.0" from="node_651_end" to="node_662_start" priority="-1" type="town" shape="1468.52,376.25 1509.77,386.81 1549.10,396.76">
        <lane id="667.0_0" index="0" speed="13.89" length="82.84" width="3.66" shape="1470.03,370.97 1511.12,381.49 1550.30,391.41"/>
        <lane id="667.0_1" index="1" speed="13.89" length="82.84" width="3.66" shape="1469.12,374.52 1510.22,385.04 1549.40,394.95"/>
    </edge>
    <edge id="669.0" from="node_669_start" to="node_669_end" priority="-1" type="town" shape="8835.36,2231.36 8841.01,2233.24 8859.79,2239.51 8884.18,2248.03 8892.24,2250.97 8902.82,2254.36 8922.87,2260.96 8945.53,2268.49 8967.71,2275.48 8981.00,2279.70 9002.90,2286.42 9022.22,2292.20 9036.48,2296.33 9062.37,2303.73 9090.85,2311.77 9106.69,2316.13">
        <lane id="669.0_0" index="0" speed="13.89" length="283.99" width="3.66" shape="8837.09,2226.15 8842.75,2228.04 8861.56,2234.32 8886.03,2242.86 8894.02,2245.78 8904.52,2249.14 8924.59,2255.75 8947.22,2263.27 8969.36,2270.25 8982.64,2274.46 9004.49,2281.17 9023.77,2286.94 9038.00,2291.06 9063.87,2298.45 9092.32,2306.49 9108.00,2310.80"/>
        <lane id="669.0_1" index="1" speed="13.89" length="283.99" width="3.66" shape="8835.94,2229.63 8841.59,2231.51 8860.38,2237.78 8884.80,2246.31 8892.83,2249.24 8903.39,2252.62 8923.44,2259.23 8946.09,2266.75 8968.26,2273.74 8981.55,2277.96 9003.43,2284.67 9022.74,2290.45 9036.99,2294.57 9062.87,2301.97 9091.34,2310.01 9107.03,2314.33"/>
    </edge>
    <edge id="674.0" from="node_674_start" to="node_669_start" priority="-1" type="town" shape="7296.95,1837.10 7315.49,1840.46 7342.89,1845.75 7384.13,1854.07 7420.13,1861.78 7431.67,1864.27 7450.39,1868.49 7475.35,1874.42 7498.08,1880.06 7513.14,1883.81 7546.25,1892.31 7590.65,1903.70 7622.27,1911.78 7652.77,1919.68 7680.03,1926.61 7703.51,1932.68 7734.89,1940.77 7759.92,1947.17 7796.33,1956.57 7829.96,1965.15 7863.87,1973.83 7904.51,1984.32 7931.28,1991.20 7957.85,1997.97 8004.19,2009.94 8045.76,2020.55 8089.20,2031.61 8121.43,2039.96 8160.52,2049.92 8206.70,2061.83 8255.28,2074.36 8304.39,2086.98 8349.82,2098.61 8392.80,2109.56 8423.89,2117.64 8456.29,2125.93 8501.01,2137.38 8536.78,2146.50 8573.84,2156.07 8611.46,2165.66 8640.07,2173.12 8662.39,2179.02 8697.50,2188.66 8719.92,2195.05 8751.34,2204.40 8783.02,2214.28 8815.62,2224.79 8835.36,2231.36">
        <lane id="674.0_0" index="0" speed="13.89" length="1589.05" width="3.66" shape="7297.93,1831.70 7316.50,1835.07 7343.95,1840.37 7385.25,1848.70 7421.28,1856.42 7432.85,1858.91 7451.63,1863.15 7476.65,1869.09 7499.40,1874.74 7514.49,1878.49 7547.61,1887.00 7592.01,1898.39 7623.64,1906.47 7654.13,1914.37 7681.39,1921.30 7704.88,1927.37 7736.26,1935.46 7761.29,1941.86 7797.70,1951.26 7831.32,1959.83 7865.24,1968.52 7905.88,1979.01 7932.64,1985.89 7959.21,1992.66 8005.56,2004.63 8047.12,2015.23 8090.57,2026.30 8122.80,2034.65 8161.88,2044.61 8208.07,2056.52 8256.65,2069.05 8305.75,2081.67 8351.18,2093.29 8394.17,2104.25 8425.26,2112.33 8457.65,2120.62 8502.37,2132.06 8538.14,2141.19 8575.20,2150.76 8612.83,2160.35 8641.46,2167.81 8663.82,2173.72 8698.98,2183.38 8721.46,2189.78 8752.94,2199.15 8784.68,2209.05 8817.33,2219.58 8837.09,2226.15"/>
        <lane id="674.0_1" index="1" speed="13.89" length="1589.05" width="3.66" shape="7297.28,1835.30 7315.83,1838.66 7343.24,1843.96 7384.50,1852.28 7420.51,1859.99 7432.06,1862.49 7450.80,1866.71 7475.78,1872.65 7498.52,1878.29 7513.59,1882.04 7546.70,1890.54 7591.10,1901.93 7622.73,1910.01 7653.22,1917.91 7680.48,1924.84 7703.97,1930.91 7735.35,1939.00 7760.38,1945.40 7796.79,1954.80 7830.41,1963.38 7864.33,1972.06 7904.97,1982.55 7931.73,1989.43 7958.30,1996.20 8004.65,2008.17 8046.21,2018.78 8089.66,2029.84 8121.89,2038.19 8160.97,2048.15 8207.16,2060.06 8255.74,2072.59 8304.84,2085.21 8350.27,2096.84 8393.26,2107.79 8424.35,2115.87 8456.74,2124.16 8501.46,2135.61 8537.23,2144.73 8574.29,2154.30 8611.92,2163.89 8640.53,2171.35 8662.87,2177.26 8697.99,2186.90 8720.43,2193.30 8751.87,2202.65 8783.57,2212.54 8816.19,2223.05 8835.94,2229.63"/>
    </edge>
    <edge id="675.0" from="node_660_end" to="node_674_start" priority="-1" type="town" shape="7001.18,1776.42 7008.60,1778.26 7029.90,1783.11 7040.92,1785.84 7049.82,1787.95 7063.84,1791.23 7083.53,1795.69 7099.95,1799.36 7121.06,1803.87 7151.79,1810.35 7171.16,1814.16 7188.15,1817.55 7234.28,1826.12 7251.93,1829.23 7284.60,1834.86 7296.95,1837.10">
        <lane id="675.0_0" index="0" speed="13.89" length="300.26" width="3.66" shape="7003.97,1771.46 7009.87,1772.92 7031.17,1777.77 7042.22,1780.51 7051.08,1782.61 7065.07,1785.88 7084.74,1790.34 7101.12,1794.00 7122.20,1798.50 7152.89,1804.97 7172.23,1808.78 7189.19,1812.16 7235.26,1820.72 7252.87,1823.83 7285.56,1829.46 7297.93,1831.70"/>
        <lane id="675.0_1" index="1" speed="13.89" length="300.26" width="3.66" shape="7003.09,1775.01 7009.02,1776.48 7030.32,1781.33 7041.35,1784.07 7050.24,1786.17 7064.25,1789.45 7083.93,1793.91 7100.34,1797.58 7121.44,1802.08 7152.16,1808.56 7171.52,1812.37 7188.50,1815.76 7234.61,1824.32 7252.24,1827.43 7284.92,1833.06 7297.28,1835.30"/>
    </edge>
    <edge id="678.0" from="node_669_end" to="junction_96" priority="-1" type="town" shape="9106.69,2316.13 9118.07,2319.27 9131.88,2323.07 9144.13,2326.20 9184.65,2336.68 9234.30,2349.45 9284.95,2362.52 9353.92,2380.20 9406.90,2393.80 9465.81,2408.87 9509.72,2420.11 9559.12,2432.79 9617.44,2447.84 9674.94,2462.62 9720.63,2474.38 9770.22,2487.14 9803.07,2495.64 9834.30,2503.70 9861.40,2510.62 9873.45,2513.71">
        <lane id="678.0_0" index="0" speed="13.89" length="791.60" width="3.66" shape="9108.29,2310.88 9119.53,2313.98 9133.29,2317.77 9145.50,2320.89 9186.02,2331.37 9235.67,2344.14 9286.32,2357.21 9355.28,2374.89 9408.26,2388.49 9467.17,2403.56 9511.08,2414.80 9560.49,2427.48 9618.81,2442.53 9676.31,2457.31 9722.00,2469.07 9771.59,2481.83 9804.44,2490.33 9835.67,2498.39 9862.76,2505.30 9874.81,2508.40"/>
        <lane id="678.0_1" index="1" speed="13.89" length="791.60" width="3.66" shape="9107.32,2314.41 9118.56,2317.51 9132.35,2321.30 9144.59,2324.43 9185.11,2334.91 9234.76,2347.68 9285.41,2360.75 9354.37,2378.43 9407.35,2392.03 9466.26,2407.10 9510.17,2418.34 9559.58,2431.02 9617.90,2446.07 9675.40,2460.85 9721.09,2472.61 9770.68,2485.37 9803.53,2493.87 9834.76,2501.93 9861.85,2508.85 9873.90,2511.94"/>
    </edge>
    <edge id="906.0" from="node_666_end" to="node_906_end" priority="-1" type="town" shape="2636.03,674.39 2655.02,678.75 2673.97,682.89 2713.07,691.34 2753.46,699.51 2812.46,710.75 2850.20,718.28 2881.27,724.84 2912.67,731.77 2958.06,742.28 2987.79,749.77 3028.76,760.21 3071.45,771.12 3131.30,786.45 3149.59,791.12">
        <lane id="906.0_0" index="0" speed="13.89" length="519.13" width="3.66" shape="2637.41,669.08 2656.22,673.40 2675.13,677.53 2714.19,685.97 2754.52,694.13 2813.51,705.37 2851.30,712.91 2882.43,719.48 2913.88,726.42 2959.35,736.95 2989.14,744.45 3030.12,754.89 3072.81,765.81 3132.66,781.14 3143.59,783.93"/>
        <lane id="906.0_1" index="1" speed="13.89" length="519.13" width="3.66" shape="2636.60,672.65 2655.42,676.97 2674.36,681.11 2713.44,689.55 2753.81,697.72 2812.81,708.96 2850.57,716.49 2881.66,723.05 2913.07,729.99 2958.49,740.50 2988.24,748.00 3029.21,758.44 3071.90,769.35 3131.75,784.68 3142.68,787.47"/>
    </edge>
    <edge id="907.0" from="node_906_end" to="node_907_end" priority="-1" type="town" shape="3149.59,791.12 3174.99,797.60 3212.34,807.18">
        <lane id="907.0_0" index="0" speed="13.89" length="0.20" width="3.66" shape="3212.77,801.63 3212.96,801.68"/>
        <lane id="907.0_1" index="1" speed="13.89" length="0.20" width="3.66" shape="3211.86,805.17 3212.05,805.22"/>
    </edge>
    <edge id="908.0" from="node_906_end" to="node_907_end" priority="-1" type="town" shape="3150.53,787.38 3182.41,793.63 3214.33,799.89">
        <lane id="908.0_0" index="0" speed="13.89" length="0.20" width="3.66" shape="3213.71,797.91 3213.91,797.95"/>
    </edge>
    <edge id="909.0" from="node_907_end" to="junction_112" priority="-1" type="town" shape="3212.34,807.18 3213.03,807.36 3252.77,817.50 3281.04,824.77 3319.43,834.64 3354.16,843.54">
        <lane id="909.0_0" index="0" speed="13.89" length="144.97" width="3.66" shape="3216.00,798.68 3255.04,808.64 3283.32,815.91 3321.71,825.78 3356.43,834.68"/>
        <lane id="909.0_1" index="1" speed="13.89" length="144.97" width="3.66" shape="3215.09,802.22 3254.13,812.19 3282.41,819.46 3320.80,829.33 3355.52,838.23"/>
        <lane id="909.0_2" index="2" speed="13.89" length="144.97" width="3.66" shape="3214.19,805.77 3253.22,815.73 3281.50,823.00 3319.89,832.87 3354.61,841.77"/>
    </edge>
    <edge id="910.0" from="junction_112" to="node_910_end" priority="-1" type="town" shape="3401.34,846.31 3411.22,848.37 3439.41,854.08 3467.55,859.52 3525.76,869.59 3583.24,880.47 3621.02,888.26 3667.16,898.57">
        <lane id="910.0_0" index="0" speed="13.89" length="270.97" width="3.66" shape="3401.71,844.52 3411.59,846.58 3439.77,852.29 3467.88,857.72 3526.09,867.79 3583.59,878.68 3621.40,886.47 3667.56,896.79"/>
    </edge>
    <edge id="911.0" from="node_912_start" to="node_911_end" priority="-1" type="town" shape="3356.04,836.15 3363.71,838.01 3374.86,840.55 3401.34,846.31">
        <lane id="911.0_0" index="0" speed="13.89" length="46.47" width="3.66" shape="3356.39,834.35 3364.13,836.23 3375.26,838.77 3401.73,844.53"/>
    </edge>
    <edge id="912.0" from="node_912_start" to="junction_52" priority="-1" type="town" shape="3354.16,843.54 3369.27,847.41 3413.25,858.69 3453.74,869.02 3501.86,881.33 3546.65,892.87 3581.36,901.73 3620.17,911.67 3683.52,927.81 3724.47,938.32 3770.01,950.01 3827.17,964.68 3863.45,973.99 3910.36,985.97 3957.06,997.96 3999.52,1008.84 4034.82,1017.88 4074.09,1027.97 4104.34,1035.64 4127.92,1041.71 4166.36,1051.62 4215.05,1064.06 4274.31,1079.28 4337.72,1095.48 4377.51,1105.74 4418.02,1116.10 4467.43,1128.73 4513.87,1140.63 4555.88,1151.36 4597.03,1161.99 4652.22,1176.10 4782.78,1209.72 4861.41,1229.71 4941.21,1250.33 5055.48,1279.65 5116.83,1295.38 5163.75,1307.34 5223.23,1322.72 5320.66,1347.61 5323.79,1348.42">
        <lane id="912.0_0" index="0" speed="13.89" length="2033.32" width="3.66" shape="3355.52,838.23 3370.63,842.10 3414.61,853.38 3455.10,863.70 3503.23,876.02 3548.01,887.56 3582.72,896.41 3621.53,906.35 3684.88,922.49 3725.83,933.01 3771.37,944.70 3828.53,959.37 3864.81,968.68 3911.72,980.66 3958.42,992.65 4000.88,1003.53 4036.18,1012.57 4075.45,1022.65 4105.70,1030.32 4129.29,1036.40 4167.72,1046.31 4216.41,1058.75 4275.67,1073.97 4339.08,1090.17 4378.88,1100.43 4419.38,1110.78 4468.79,1123.42 4515.23,1135.32 4557.25,1146.05 4598.40,1156.68 4653.58,1170.79 4784.14,1204.41 4862.77,1224.40 4942.58,1245.02 5056.84,1274.34 5118.19,1290.06 5165.12,1302.03 5224.60,1317.41 5322.02,1342.29 5325.17,1343.11"/>