<?xml version='1.0' encoding='utf-8'?>
<edges>
    <edge id="651.0" from="node_651_start" to="node_651_end" numLanes="2" speed="13.89" type="town" shape="748062.18,3290542.93 748092.36,3290550.64 748092.36,3290550.64 748158.65,3290567.49 748158.65,3290567.49 748235.75,3290587.27 748235.75,3290587.27 748304.00,3290604.77 748304.00,3290604.77 748398.33,3290629.07 748398.33,3290629.07 748512.90,3290658.46 748512.90,3290658.46 748573.77,3290673.94 748573.77,3290673.94 748654.41,3290694.61 748654.41,3290694.61 748695.62,3290705.80 748695.62,3290705.80 748736.82,3290717.69 748736.82,3290717.69 748770.30,3290726.79 748770.30,3290726.79 748803.51,3290735.49 748803.51,3290735.49 748853.71,3290748.31 748853.71,3290748.31 748903.94,3290760.32 748903.94,3290760.32 748955.01,3290772.01 748955.01,3290772.01 749006.02,3290784.62 749006.02,3290784.62 749113.04,3290812.11 749113.04,3290812.11 749189.22,3290831.70 749189.22,3290831.70 749263.51,3290850.80 749263.51,3290850.80 749320.20,3290865.33 749320.20,3290865.33 749366.54,3290877.13 749366.54,3290877.13 749443.87,3290896.84 749443.87,3290896.84 749501.51,3290911.62 749501.51,3290911.62 749530.70,3290919.18">
        <lane index="0" width="3.66" />
        <lane index="1" width="3.66" />
    </edge>
    <edge id="654.0" from="node_654_start" to="node_654_end" numLanes="3" speed="13.89" type="town" shape="754855.98,3292266.07 754910.66,3292280.13">
        <lane index="0" width="3.66" type="shoulder" disallow="all" />
        <lane index="1" width="3.66" />
        <lane index="2" width="3.66" />
    </edge>
    <edge id="655.0" from="node_655_start" to="node_655_end" numLanes="2" speed="13.89" type="town" shape="753578.08,3291940.74 753601.84,3291946.74 753601.84,3291946.74 753639.36,3291956.15 753639.36,3291956.15 753676.07,3291964.90 753676.07,3291964.90 753699.24,3291970.33 753699.24,3291970.33 753722.37,3291975.91 753722.37,3291975.91 753762.56,3291985.71 753762.56,3291985.71 753806.16,3291996.55">
        <lane index="0" width="3.66" />
        <lane index="1" width="3.66" />
    </edge>
    <edge id="656.0" from="node_656_start" to="node_656_end" numLanes="2" speed="13.89" type="town" shape="750197.51,3291089.95 750231.93,3291098.84">
        <lane index="0" width="3.66" />
        <lane index="1" width="3.66" />
    </edge>
    <edge id="657.0" from="node_657_start" to="node_656_start" numLanes="2" speed="13.89" type="town" shape="750067.06,3291056.16 750122.43,3291070.81 750122.43,3291070.81 750197.51,3291089.95">
        <lane index="0" width="3.66" />
        <lane index="1" width="3.66" />
    </edge>
    <edge id="658.0" from="node_658_start" to="node_658_end" numLanes="2" speed="13.89" type="town" shape="749690.67,3290960.04 749739.40,3290972.59 749739.40,3290972.59 749772.53,3290981.03">
        <lane index="0" width="3.66" />
        <lane index="1" width="3.66" />
    </edge>
    <edge id="659.0" from="node_655_end" to="node_654_start" numLanes="3" speed="13.89" type="town" shape="753806.16,3291996.55 753851.76,3292008.62 753851.76,3292008.62 753887.31,3292017.87 753887.31,3292017.87 753933.98,3292029.74 753933.98,3292029.74 753981.95,3292042.02 753981.95,3292042.02 754052.40,3292060.09 754052.40,3292060.09 754159.04,3292087.43 754159.04,3292087.43 754265.86,3292114.82 754265.86,3292114.82 754361.10,3292139.13 754361.10,3292139.13 754442.65,3292159.96 754442.65,3292159.96 754549.59,3292187.49 754549.59,3292187.49 754609.17,3292202.80 754609.17,3292202.80 754680.28,3292221.02 754680.28,3292221.02 754751.38,3292239.24 754751.38,3292239.24 754798.48,3292251.32 754798.48,3292251.32 754855.98,3292266.07">
        <lane index="0" width="3.66" type="shoulder" disallow="all" />
        <lane index="1" width="3.66" />
        <lane index="2" width="3.66" />
    </edge>
    <edge id="660.0" from="node_654_end" to="node_660_end" numLanes="3" speed="13.89" type="town" shape="754910.66,3292280.13 754916.37,3292281.60 754916.37,3292281.60 754931.74,3292285.51 754931.74,3292285.51 754952.84,3292290.93 754952.84,3292290.93 754999.30,3292302.93 754999.30,3292302.93 755034.17,3292311.83 755034.17,3292311.83 755063.36,3292319.35">
        <lane index="0" width="3.66" type="shoulder" disallow="all" />
        <lane index="1" width="3.66" />
        <lane index="2" width="3.66" />
    </edge>
    <edge id="661.0" from="node_658_end" to="node_661_end" numLanes="2" speed="13.89" type="town" shape="749772.53,3290981.03 749803.58,3290988.99 749803.58,3290988.99 749854.77,3291002.20">
        <lane index="0" width="3.66" />
        <lane index="1" width="3.66" />
    </edge>
    <edge id="662.0" from="node_662_start" to="node_658_start" numLanes="2" speed="13.89" type="town" shape="749611.28,3290939.69 749631.49,3290944.82 749631.49,3290944.82 749690.67,3290960.04">
        <lane index="0" width="3.66" />
        <lane index="1" width="3.66" />
    </edge>
    <edge id="663.0" from="node_661_end" to="node_657_start" numLanes="2" speed="13.89" type="town" shape="749854.77,3291002.20 749895.44,3291012.58 749895.44,3291012.58 749938.76,3291023.76 749938.76,3291023.76 750041.08,3291049.35 750041.08,3291049.35 750067.06,3291056.16">
        <lane index="0" width="3.66" />
        <lane index="1" width="3.66" />
    </edge>
    <edge id="664.0" from="node_656_end" to="node_664_end" numLanes="2" speed="13.89" type="town" shape="750231.93,3291098.84 750292.23,3291114.21 750292.23,3291114.21 750333.42,3291124.73">
        <lane index="0" width="3.66" />
        <lane index="1" width="3.66" />
    </edge>
    <edge id="665.0" from="node_664_end" to="node_665_end" numLanes="2" speed="13.89" type="town" shape="750333.42,3291124.73 750385.58,3291138.08 750385.58,3291138.08 750459.05,3291156.94 750459.05,3291156.94 750500.84,3291167.55 750500.84,3291167.55 750520.41,3291172.56">
        <lane index="0" width="3.66" />
        <lane index="1" width="3.66" />
    </edge>
    <edge id="666.0" from="node_665_end" to="node_666_end" numLanes="2" speed="13.89" type="town" shape="750520.41,3291172.56 750589.75,3291190.45 750589.75,3291190.45 750630.49,3291200.83 750630.49,3291200.83 750672.21,3291211.18 750672.21,3291211.18 750698.21,3291217.32">
        <lane index="0" width="3.66" />
        <lane index="1" width="3.66" />
    </edge>
    <edge id="667.0" from="node_651_end" to="node_662_start" numLanes="2" speed="13.89" type="town" shape="749530.70,3290919.18 749571.95,3290929.74 749571.95,3290929.74 749611.28,3290939.69">
        <lane index="0" width="3.66" />
        <lane index="1" width="3.66" />
    </edge>
    <edge id="669.0" from="node_669_start" to="node_669_end" numLanes="2" speed="13.89" type="town" shape="756897.54,3292774.29 756903.19,3292776.17 756903.19,3292776.17 756921.97,3292782.44 756921.97,3292782.44 756946.36,3292790.96 756946.36,3292790.96 756954.42,3292793.90 756954.42,3292793.90 756965.00,3292797.29 756965.00,3292797.29 756985.05,3292803.89 756985.05,3292803.89 757007.71,3292811.42 757007.71,3292811.42 757029.89,3292818.41 757029.89,3292818.41 757043.18,3292822.63 757043.18,3292822.63 757065.08,3292829.35 757065.08,3292829.35 757084.40,3292835.13 757084.40,3292835.13 757098.66,3292839.26 757098.66,3292839.26 757124.55,3292846.66 757124.55,3292846.66 757153.03,3292854.70 757153.03,3292854.70 757168.87,3292859.06">
        <lane index="0" width="3.66" />
        <lane index="1" width="3.66" />
    </edge>
    <edge id="674.0" from="node_674_start" to="node_669_start" numLanes="2" speed="13.89" type="town" shape="755359.13,3292380.03 755377.67,3292383.39 755377.67,3292383.39 755405.07,3292388.68 755405.07,3292388.68 755446.31,3292397.00 755446.31,3292397.00 755482.31,3292404.71 755482.31,3292404.71 755493.85,3292407.20 755493.85,3292407.20 755512.57,3292411.42 755512.57,3292411.42 755537.53,3292417.35 755537.53,3292417.35 755560.26,3292422.99 755560.26,3292422.99 755575.32,3292426.74 755575.32,3292426.74 755608.43,3292435.24 755608.43,3292435.24 755652.83,3292446.63 755652.83,3292446.63 755684.45,3292454.71 755684.45,3292454.71 755714.95,3292462.61 755714.95,3292462.61 755742.21,3292469.54 755742.21,3292469.54 755765.69,3292475.61 755765.69,3292475.61 755797.07,3292483.70 755797.07,3292483.70 755822.10,3292490.10 755822.10,3292490.10 755858.51,3292499.50 755858.51,3292499.50 755892.14,3292508.08 755892.14,3292508.08 755926.05,3292516.76 755926.05,3292516.76 755966.69,3292527.25 755966.69,3292527.25 755993.46,3292534.13 755993.46,3292534.13 756020.03,3292540.90 756020.03,3292540.90 756066.37,3292552.87 756066.37,3292552.87 756107.94,3292563.48 756107.94,3292563.48 756151.38,3292574.54 756151.38,3292574.54 756183.61,3292582.89 756183.61,3292582.89 756222.70,3292592.85 756222.70,3292592.85 756268.88,3292604.76 756268.88,3292604.76 756317.46,3292617.29 756317.46,3292617.29 756366.57,3292629.91 756366.57,3292629.91 756412.00,3292641.54 756412.00,3292641.54 756454.98,3292652.49 756454.98,3292652.49 756486.07,3292660.57 756486.07,3292660.57 756518.47,3292668.86 756518.47,3292668.86 756563.19,3292680.31 756563.19,3292680.31 756598.96,3292689.43 756598.96,3292689.43 756636.02,3292699.00 756636.02,3292699.00 756673.64,3292708.59 756673.64,3292708.59 756702.25,3292716.05 756702.25,3292716.05 756724.57,3292721.95 756724.57,3292721.95 756759.68,3292731.59 756759.68,3292731.59 756782.10,3292737.98 756782.10,3292737.98 756813.52,3292747.33 756813.52,3292747.33 756845.20,3292757.21 756845.20,3292757.21 756877.80,3292767.72 756877.80,3292767.72 756897.54,3292774.29">
        <lane index="0" width="3.66" />
        <lane index="1" width="3.66" />
    </edge>
    <edge id="675.0" from="node_660_end" to="node_674_start" numLanes="2" speed="13.89" type="town" shape="755063.36,3292319.35 755070.78,3292321.19 755070.78,3292321.19 755092.08,3292326.04 755092.08,3292326.04 755103.10,3292328.77 755103.10,3292328.77 755112.00,3292330.88 755112.00,3292330.88 755126.02,3292334.16 755126.02,3292334.16 755145.71,3292338.62 755145.71,3292338.62 755162.13,3292342.29 755162.13,3292342.29 755183.24,3292346.80 755183.24,3292346.80 755213.97,3292353.28 755213.97,3292353.28 755233.34,3292357.09 755233.34,3292357.09 755250.33,3292360.48 755250.33,3292360.48 755296.46,3292369.05 755296.46,3292369.05 755314.11,3292372.16 755314.11,3292372.16 755346.78,3292377.79 755346.78,3292377.79 755359.13,3292380.03">
        <lane index="0" width="3.66" />
        <lane index="1" width="3.66" />
    </edge>
    <edge id="906.0" from="node_666_end" to="node_906_end" numLanes="2" speed="13.89" type="town" shape="750698.21,3291217.32 750717.20,3291221.68 750717.20,3291221.68 750736.15,3291225.82 750736.15,3291225.82 750775.25,3291234.27 750775.25,3291234.27 750815.64,3291242.44 750815.64,3291242.44 750874.64,3291253.68 750874.64,3291253.68 750912.38,3291261.21 750912.38,3291261.21 750943.45,3291267.77 750943.45,3291267.77 750974.85,3291274.70 750974.85,3291274.70 751020.24,3291285.21 751020.24,3291285.21 751049.97,3291292.70 751049.97,3291292.70 751090.94,3291303.14 751090.94,3291303.14 751133.63,3291314.05 751133.63,3291314.05 751193.48,3291329.38 751193.48,3291329.38 751211.77,3291334.05">
        <lane index="0" width="3.66" />
        <lane index="1" width="3.66" />
    </edge>
    <edge id="907.0" from="node_906_end" to="node_907_end" numLanes="2" speed="13.89" type="town" shape="751211.77,3291334.05 751237.17,3291340.53 751237.17,3291340.53 751274.52,3291350.11">
        <lane index="0" width="3.66" />
        <lane index="1" width="3.66" />
    </edge>
    <edge id="908.0" from="node_906_end" to="node_907_end" numLanes="1" speed="13.89" type="town" shape="751212.71,3291330.31 751244.59,3291336.56 751244.59,3291336.56 751276.51,3291342.82">
        <lane index="0" width="3.66" />
    </edge>
    <edge id="909.0" from="node_907_end" to="junction_112" numLanes="3" speed="13.89" type="town" shape="751274.52,3291350.11 751275.21,3291350.29 751275.21,3291350.29 751314.95,3291360.43 751314.95,3291360.43 751343.22,3291367.70 751343.22,3291367.70 751381.61,3291377.57 751381.61,3291377.57 751416.34,3291386.47">
        <lane index="0" width="3.66" />
        <lane index="1" width="3.66" />
        <lane index="2" width="3.66" />
    </edge>
    <edge id="910.0" from="junction_112" to="node_910_end" numLanes="1" speed="13.89" type="town" shape="751463.52,3291389.24 751473.40,3291391.30 751473.40,3291391.30 751501.59,3291397.01 751501.59,3291397.01 751529.73,3291402.45 751529.73,3291402.45 751587.94,3291412.52 751587.94,3291412.52 751645.42,3291423.40 751645.42,3291423.40 751683.20,3291431.19 751683.20,3291431.19 751729.34,3291441.50">
        <lane index="0" width="3.66" />
    </edge>
    <edge id="911.0" from="node_912_start" to="node_911_end" numLanes="1" speed="13.89" type="town" shape="751418.22,3291379.08 751425.89,3291380.94 751425.89,3291380.94 751437.04,3291383.48 751437.04,3291383.48 751463.52,3291389.24">
        <lane index="0" width="3.66" />
    </edge>
    <edge id="912.0" from="node_912_start" to="junction_52" numLanes="2" speed="13.89" type="town" shape="751416.34,3291386.47 751431.45,3291390.34 751431.45,3291390.34 751475.43,3291401.62 751475.43,3291401.62 751515.92,3291411.95 751515.92,3291411.95 751564.04,3291424.26 751564.04,3291424.26 751608.83,3291435.80 751608.83,3291435.80 751643.54,3291444.66 751643.54,3291444.66 751682.35,3291454.60 751682.35,3291454.60 751745.70,3291470.74 751745.70,3291470.74 751786.65,3291481.25 751786.65,3291481.25 751832.19,3291492.94 751832.19,3291492.94 751889.35,3291507.61 751889.35,3291507.61 751925.63,3291516.92 751925.63,3291516.92 751972.54,3291528.90 751972.54,3291528.90 752019.24,3291540.89 752019.24,3291540.89 752061.70,3291551.77 752061.70,3291551.77 752097.00,3291560.81 752097.00,3291560.81 752136.27,3291570.90 752136.27,3291570.90 752166.52,3291578.57 752166.52,3291578.57 752190.10,3291584.64 752190.10,3291584.64 752228.54,3291594.55 752228.54,3291594.55 752277.23,3291606.99 752277.23,3291606.99 752336.49,3291622.21 752336.49,3291622.21 752399.90,3291638.41 752399.90,3291638.41 752439.69,3291648.67 752439.69,3291648.67 752480.20,3291659.03 752480.20,3291659.03 752529.61,3291671.66 752529.61,3291671.66 752576.05,3291683.56 752576.05,3291683.56 752618.06,3291694.29 752618.06,3291694.29 752659.21,3291704.92 752659.21,3291704.92 752714.40,3291719.03 752714.40,3291719.03 752844.96,3291752.65 752844.96,3291752.65 752923.59,3291772.64 752923.59,3291772.64 753003.39,3291793.26 753003.39,3291793.26 753117.66,3291822.58 753117.66,3291822.58 753179.01,3291838.31 753179.01,3291838.31 753225.93,3291850.27 753225.93,3291850.27 753285.41,3291865.65 753285.41,3291865.65 753382.84,3291890.54 753382.84,3291890.54 753385.97,3291891.35">
        <lane index="0" width="3.66" />
        <lane index="1" width="3.66" />
    </edge>
    <edge id="914.0" from="junction_52" to="node_655_start" numLanes="2" speed="13.89" type="town" shape="753528.53,3291927.96 753578.08,3291940.74">
        <lane index="0" width="3.66" />
        <lane index="1" width="3.66" />
    </edge>
    <edge id="916.0" from="node_916_start" to="node_916_end" numLanes="1" speed="13.89" type="town" shape="753292.78,3291857.27 753323.18,3291865.87 753323.18,3291865.87 753341.96,3291871.20">
        <lane index="0" width="3.66" />
    </edge>
    <edge id="917.0" from="node_916_end" to="junction_52" numLanes="1" speed="13.89" type="town" shape="753341.96,3291871.20 753387.73,3291884.05">
        <lane index="0" width="3.66" />
    </edge>
    <edge id="678.0" from="node_669_end" to="junction_96" numLanes="2" speed="13.89" type="town" shape="757168.87,3292859.06 757180.25,3292862.20 757180.25,3292862.20 757194.06,3292866.00 757194.06,3292866.00 757206.31,3292869.13 757206.31,3292869.13 757246.83,3292879.61 757246.83,3292879.61 757296.48,3292892.38 757296.48,3292892.38 757347.13,3292905.45 757347.13,3292905.45 757416.10,3292923.13 757416.10,3292923.13 757469.08,3292936.73 757469.08,3292936.73 757527.99,3292951.80 757527.99,3292951.80 757571.90,3292963.04 757571.90,3292963.04 757621.30,3292975.72 757621.30,3292975.72 757679.62,3292990.77 757679.62,3292990.77 757737.12,3293005.55 757737.12,3293005.55 757782.81,3293017.31 757782.81,3293017.31 757832.40,3293030.07 757832.40,3293030.07 757865.25,3293038.57 757865.25,3293038.57 757896.48,3293046.63 757896.48,3293046.63 757923.58,3293053.55 757923.58,3293053.55 757935.63,3293056.64">
        <lane index="0" width="3.66" />
        <lane index="1" width="3.66" />
    </edge>
</edges>