<?xml version="1.0" encoding="UTF-8"?>

<!-- generated on 2025-10-19 17:33:41 by Eclipse SUMO netconvert Version 1.23.1
<netconvertConfiguration xmlns:xsi="http://www.w3.org/2001/XMLSchema-instance" xsi:noNamespaceSchemaLocation="http://sumo.dlr.de/xsd/netconvertConfiguration.xsd">

    <input>
        <node-files value="/home/sdai/harry/TeraSim/jupiter/wb/jupiter_wb_tiles/tile_0025/tile_0025.nod.xml"/>
        <edge-files value="/home/sdai/harry/TeraSim/jupiter/wb/jupiter_wb_tiles/tile_0025/tile_0025.edg.xml"/>
        <connection-files value="/home/sdai/harry/TeraSim/jupiter/wb/jupiter_wb_tiles/tile_0025/tile_0025.con.xml"/>
    </input>

    <output>
        <output-file value="/home/sdai/harry/TeraSim/jupiter/wb/jupiter_wb_tiles/tile_0025/tile_0025.net.xml"/>
        <output.street-names value="true"/>
        <output.original-names value="true"/>
    </output>

    <processing>
        <geometry.remove value="false"/>
        <geometry.min-dist value="0.5"/>
        <edges.join value="false"/>
    </processing>

    <junctions>
        <no-internal-links value="false"/>
        <no-turnarounds value="true"/>
        <junctions.join value="true"/>
        <junctions.join-dist value="10"/>
        <junctions.corner-detail value="5"/>
        <junctions.internal-link-detail value="5"/>
        <junctions.limit-turn-speed value="5.5"/>
        <rectangular-lane-cut value="true"/>
        <check-lane-foes.all value="true"/>
    </junctions>

</netconvertConfiguration>
-->

<net version="1.20" junctionCornerDetail="5" junctionLinkDetail="5" rectangularLaneCut="true" limitTurnSpeed="5.50" checkLaneFoesAll="1" xmlns:xsi="http://www.w3.org/2001/XMLSchema-instance" xsi:noNamespaceSchemaLocation="http://sumo.dlr.de/xsd/net_file.xsd">

    <location netOffset="-595525.58,-3271800.18" convBoundary="0.00,0.00,3148.11,2323.54" origBoundary="0.00,0.00,598772.72,3274178.00" projParameter="!"/>

    <edge id=":junction_105_0" function="internal">
        <lane id=":junction_105_0_0" index="0" speed="13.89" length="91.42" width="3.66" shape="1778.04,1212.59 1703.93,1159.06"/>
    </edge>
    <edge id=":junction_105_1" function="internal">
        <lane id=":junction_105_1_0" index="0" speed="13.89" length="91.73" width="3.66" shape="1778.04,1212.59 1706.20,1155.53"/>
        <lane id=":junction_105_1_1" index="1" speed="13.89" length="91.73" width="3.66" shape="1780.31,1209.72 1708.49,1152.68"/>
    </edge>
    <edge id=":junction_42_0" function="internal">
        <lane id=":junction_42_0_0" index="0" speed="13.89" length="126.50" width="3.66" shape="2957.22,2159.64 2860.02,2078.67"/>
    </edge>
    <edge id=":junction_42_1" function="internal">
        <lane id=":junction_42_1_0" index="0" speed="13.89" length="126.36" width="3.66" shape="2961.11,2154.60 2862.31,2075.82"/>
        <lane id=":junction_42_1_1" index="1" speed="13.89" length="126.36" width="3.66" shape="2963.39,2151.73 2864.60,2072.96"/>
    </edge>
    <edge id=":junction_46_0" function="internal">
        <lane id=":junction_46_0_0" index="0" speed="13.89" length="11.12" width="3.66" shape="285.47,189.42 283.02,187.58 281.17,186.24 279.18,184.92 276.32,183.12"/>
    </edge>
    <edge id=":junction_46_1" function="internal">
        <lane id=":junction_46_1_0" index="0" speed="13.89" length="11.17" width="3.66" shape="287.68,185.97 278.24,180.01"/>
        <lane id=":junction_46_1_1" index="1" speed="13.89" length="11.17" width="3.66" shape="289.63,182.87 280.17,176.90"/>
    </edge>
    <edge id=":node_555_end_0" function="internal">
        <lane id=":node_555_end_0_0" index="0" speed="13.89" length="8.05" width="3.66" shape="2612.05,1876.68 2605.74,1871.70"/>
    </edge>
    <edge id=":node_555_end_1" function="internal">
        <lane id=":node_555_end_1_0" index="0" speed="13.89" length="8.00" width="3.66" shape="2611.99,1876.69 2605.74,1871.70"/>
        <lane id=":node_555_end_1_1" index="1" speed="13.89" length="8.00" width="3.66" shape="2614.27,1873.82 2608.02,1868.84"/>
    </edge>
    <edge id=":node_555_start_0" function="internal">
        <lane id=":node_555_start_0_0" index="0" speed="13.89" length="3.21" width="3.66" shape="2741.43,1984.12 2738.95,1982.09"/>
    </edge>
    <edge id=":node_555_start_1" function="internal">
        <lane id=":node_555_start_1_0" index="0" speed="13.89" length="3.00" width="3.66" shape="2743.71,1981.26 2741.36,1979.39"/>
        <lane id=":node_555_start_1_1" index="1" speed="13.89" length="3.00" width="3.66" shape="2745.98,1978.40 2743.63,1976.53"/>
    </edge>
    <edge id=":node_557_end_0" function="internal">
        <lane id=":node_557_end_0_0" index="0" speed="13.89" length="0.30" width="3.66" shape="1849.59,1269.38 1849.36,1269.20"/>
        <lane id=":node_557_end_0_1" index="1" speed="13.89" length="0.30" width="3.66" shape="1851.88,1266.52 1851.64,1266.33"/>
    </edge>
    <edge id=":node_560_end_0" function="internal">
        <lane id=":node_560_end_0_0" index="0" speed="13.89" length="2.89" width="3.66" shape="479.20,302.93 476.79,301.50"/>
        <lane id=":node_560_end_0_1" index="1" speed="13.89" length="2.89" width="3.66" shape="481.14,299.83 478.59,298.31"/>
    </edge>
    <edge id=":node_560_start_0" function="internal">
        <lane id=":node_560_start_0_0" index="0" speed="13.89" length="2.98" width="3.66" shape="1673.07,1129.18 1670.70,1127.31"/>
        <lane id=":node_560_start_0_1" index="1" speed="13.89" length="2.98" width="3.66" shape="1675.30,1126.27 1672.99,1124.46"/>
    </edge>
    <edge id=":node_571_end_0" function="internal">
        <lane id=":node_571_end_0_0" index="0" speed="13.89" length="0.30" width="3.66" shape="1668.26,1133.75 1668.01,1133.58"/>
    </edge>
    <edge id=":node_592_end_0" function="internal">
        <lane id=":node_592_end_0_0" index="0" speed="13.89" length="0.30" width="3.66" shape="347.79,223.61 347.53,223.44"/>
        <lane id=":node_592_end_0_1" index="1" speed="13.89" length="0.30" width="3.66" shape="349.72,220.50 349.48,220.34"/>
    </edge>
    <edge id=":node_594_end_0" function="internal">
        <lane id=":node_594_end_0_0" index="0" speed="13.89" length="8.05" width="3.66" shape="131.96,88.63 125.00,84.57"/>
    </edge>
    <edge id=":node_594_end_1" function="internal">
        <lane id=":node_594_end_1_0" index="0" speed="13.89" length="8.00" width="3.66" shape="131.79,88.80 125.00,84.57"/>
        <lane id=":node_594_end_1_1" index="1" speed="13.89" length="8.00" width="3.66" shape="133.73,85.69 126.94,81.47"/>
    </edge>
    <edge id=":node_594_start_0" function="internal">
        <lane id=":node_594_start_0_0" index="0" speed="13.89" length="3.28" width="3.66" shape="233.48,156.52 232.74,155.92 232.33,155.38 231.92,154.83 231.18,154.22"/>
    </edge>
    <edge id=":node_594_start_1" function="internal">
        <lane id=":node_594_start_1_0" index="0" speed="13.89" length="3.03" width="3.66" shape="235.47,153.45 232.94,151.84"/>
        <lane id=":node_594_start_1_1" index="1" speed="13.89" length="3.03" width="3.66" shape="237.46,150.38 234.87,148.73"/>
    </edge>
    <edge id=":node_595_end_0" function="internal">
        <lane id=":node_595_end_0_0" index="0" speed="13.89" length="0.30" width="3.66" shape="343.03,230.80 342.78,230.63"/>
    </edge>

    <edge id="555.0" from="node_555_start" to="node_555_end" priority="-1" type="town" shape="2745.90,1975.99 2736.41,1968.45 2725.69,1959.85 2714.45,1951.11 2701.63,1940.92 2690.65,1932.23 2681.77,1925.14 2672.95,1918.07 2659.70,1907.51 2649.39,1899.28 2637.21,1889.66 2624.08,1879.29 2612.28,1869.90">
        <lane id="555.0_0" index="0" speed="13.89" length="165.18" width="3.66" shape="2741.36,1979.39 2732.98,1972.74 2722.29,1964.16 2711.06,1955.43 2698.22,1945.22 2687.23,1936.53 2678.34,1929.43 2669.52,1922.36 2656.28,1911.80 2645.98,1903.58 2633.81,1893.97 2620.67,1883.59 2611.99,1876.69"/>
        <lane id="555.0_1" index="1" speed="13.89" length="165.18" width="3.66" shape="2743.63,1976.53 2735.27,1969.88 2724.56,1961.29 2713.32,1952.55 2700.49,1942.35 2689.51,1933.66 2680.63,1926.57 2671.81,1919.50 2658.56,1908.94 2648.25,1900.71 2636.08,1891.10 2622.94,1880.72 2614.27,1873.82"/>
    </edge>
    <edge id="557.0" from="node_555_end" to="node_557_end" priority="-1" type="town" shape="2612.28,1869.90 2605.88,1864.79 2600.92,1860.85 2594.34,1855.65 2586.77,1849.65 2577.69,1842.39 2568.73,1835.22 2562.12,1829.93 2555.96,1824.94 2549.93,1820.12 2543.31,1814.63 2537.39,1809.57 2531.27,1804.57 2525.64,1799.85 2521.06,1796.09 2516.43,1792.31 2509.75,1786.80 2503.45,1781.60 2496.34,1775.75 2489.33,1769.91 2480.88,1762.92 2475.23,1758.23 2467.50,1751.82 2461.04,1746.51 2447.41,1735.22 2435.90,1725.65 2424.27,1716.17 2415.59,1709.12 2407.96,1703.00 2398.46,1695.39 2389.34,1688.07 2377.82,1678.86 2370.97,1673.43 2361.49,1665.86 2345.49,1653.12 2333.84,1644.00 2316.56,1630.59 2304.17,1620.94 2296.11,1614.77 2289.98,1610.08 2266.06,1591.70 2252.63,1581.49 2239.91,1571.59 2223.10,1558.58 2211.42,1549.58 2198.33,1539.38 2185.47,1529.57 2174.65,1521.20 2165.12,1513.65 2157.73,1507.66 2149.22,1500.79 2140.99,1494.18 2132.27,1487.13 2122.40,1479.25 2110.96,1470.08 2102.60,1463.39 2093.87,1456.51 2087.73,1451.61 2080.34,1445.78 2072.51,1439.51 2055.12,1425.64 2044.89,1417.50 2038.09,1412.14 2033.18,1408.23 2025.27,1401.89 2015.99,1394.54 2005.10,1385.83 1998.40,1380.47 1990.80,1374.47 1984.76,1369.65 1976.54,1363.16 1967.80,1356.25 1960.26,1350.21 1952.91,1344.35 1945.12,1338.14 1938.54,1332.93 1931.56,1327.30 1924.57,1321.82 1917.59,1316.26 1909.09,1309.43 1898.38,1300.97 1888.18,1292.86 1878.96,1285.59 1866.12,1275.46 1854.82,1266.54 1852.90,1265.00">
        <lane id="557.0_0" index="0" disallow="all" speed="13.89" length="966.78" width="3.66" shape="2603.45,1874.56 2600.18,1871.95 2595.24,1868.02 2588.66,1862.82 2581.07,1856.81 2571.97,1849.54 2563.01,1842.36 2556.38,1837.06 2550.22,1832.07 2544.15,1827.22 2537.42,1821.63 2531.52,1816.59 2525.44,1811.62 2519.79,1806.89 2515.26,1803.17 2510.62,1799.38 2503.93,1793.86 2497.63,1788.66 2490.50,1782.80 2483.49,1776.95 2475.04,1769.97 2469.39,1765.27 2461.67,1758.87 2455.21,1753.56 2441.57,1742.26 2430.08,1732.71 2418.49,1723.27 2409.84,1716.24 2402.24,1710.14 2392.74,1702.53 2383.62,1695.21 2372.12,1686.02 2365.27,1680.59 2355.79,1673.02 2339.82,1660.30 2328.22,1651.22 2310.94,1637.81 2298.57,1628.18 2290.55,1622.04 2284.41,1617.34 2260.50,1598.97 2247.05,1588.74 2234.30,1578.82 2217.51,1565.82 2205.81,1556.81 2192.74,1546.63 2179.90,1536.83 2169.01,1528.40 2159.40,1520.79 2151.98,1514.77 2143.48,1507.92 2135.25,1501.30 2126.54,1494.26 2116.68,1486.39 2105.24,1477.22 2096.91,1470.56 2088.19,1463.68 2082.04,1458.78 2074.65,1452.94 2066.80,1446.66 2049.42,1432.80 2039.21,1424.67 2032.41,1419.31 2027.47,1415.38 2019.57,1409.05 2010.29,1401.70 1999.38,1392.98 1992.71,1387.63 1985.11,1381.64 1979.07,1376.82 1970.87,1370.34 1962.10,1363.41 1954.55,1357.36 1947.21,1351.50 1939.43,1345.30 1932.83,1340.08 1925.86,1334.46 1918.90,1329.00 1911.87,1323.40 1903.39,1316.59 1892.70,1308.14 1882.50,1300.03 1873.29,1292.77 1860.45,1282.64 1849.14,1273.72 1847.30,1272.24" type="shoulder"/>
        <lane id="557.0_1" index="1" speed="13.89" length="966.78" width="3.66" shape="2605.74,1871.70 2602.46,1869.08 2597.51,1865.15 2590.93,1859.95 2583.35,1853.94 2574.26,1846.68 2565.30,1839.51 2558.68,1834.21 2552.52,1829.22 2546.46,1824.38 2539.77,1818.83 2533.87,1813.78 2527.77,1808.80 2522.13,1804.07 2517.58,1800.34 2512.95,1796.55 2506.26,1791.03 2499.96,1785.84 2492.84,1779.98 2485.82,1774.13 2477.38,1767.15 2471.72,1762.46 2464.00,1756.05 2457.54,1750.74 2443.90,1739.44 2432.41,1729.89 2420.80,1720.43 2412.14,1713.39 2404.53,1707.28 2395.03,1699.67 2385.91,1692.36 2374.40,1683.15 2367.55,1677.73 2358.07,1670.15 2342.09,1657.43 2330.47,1648.33 2313.19,1634.92 2300.81,1625.28 2292.77,1619.13 2286.64,1614.43 2262.72,1596.06 2249.28,1585.84 2236.54,1575.93 2219.74,1562.92 2208.06,1553.92 2194.98,1543.73 2182.13,1533.92 2171.27,1525.52 2161.69,1517.93 2154.28,1511.93 2145.78,1505.07 2137.55,1498.45 2128.83,1491.41 2118.97,1483.54 2107.53,1474.36 2099.19,1467.69 2090.46,1460.81 2084.32,1455.91 2076.92,1450.08 2069.08,1443.80 2051.70,1429.93 2041.48,1421.80 2034.68,1416.44 2029.75,1412.52 2021.85,1406.18 2012.57,1398.83 2001.67,1390.12 1994.99,1384.77 1987.39,1378.77 1981.35,1373.95 1973.14,1367.47 1964.38,1360.55 1956.83,1354.50 1949.49,1348.64 1941.70,1342.44 1935.11,1337.22 1928.14,1331.60 1921.17,1326.13 1914.16,1320.55 1905.67,1313.72 1894.97,1305.27 1884.77,1297.16 1875.56,1289.90 1862.72,1279.77 1851.41,1270.85 1849.59,1269.38"/>
        <lane id="557.0_2" index="2" speed="13.89" length="966.78" width="3.66" shape="2608.02,1868.84 2604.74,1866.22 2599.78,1862.28 2593.20,1857.08 2585.63,1851.08 2576.55,1843.82 2567.59,1836.65 2560.97,1831.36 2554.81,1826.37 2548.77,1821.54 2542.13,1816.03 2536.22,1810.97 2530.10,1805.98 2524.47,1801.26 2519.90,1797.51 2515.27,1793.72 2508.59,1788.21 2502.29,1783.01 2495.17,1777.16 2488.16,1771.32 2479.71,1764.33 2474.06,1759.64 2466.33,1753.23 2459.87,1747.92 2446.24,1736.63 2434.74,1727.06 2423.11,1717.59 2414.44,1710.54 2406.82,1704.43 2397.32,1696.82 2388.20,1689.50 2376.68,1680.29 2369.83,1674.86 2360.35,1667.29 2344.36,1654.56 2332.72,1645.44 2315.44,1632.03 2303.05,1622.39 2295.00,1616.22 2288.87,1611.53 2264.95,1593.15 2251.51,1582.94 2238.79,1573.04 2221.98,1560.03 2210.30,1551.03 2197.21,1540.83 2184.36,1531.02 2173.52,1522.64 2163.98,1515.08 2156.58,1509.08 2148.07,1502.22 2139.84,1495.60 2131.12,1488.56 2121.26,1480.68 2109.82,1471.51 2101.46,1464.82 2092.73,1457.94 2086.59,1453.04 2079.20,1447.21 2071.37,1440.94 2053.98,1427.07 2043.75,1418.93 2036.95,1413.57 2032.04,1409.66 2024.13,1403.32 2014.85,1395.97 2003.96,1387.26 1997.26,1381.90 1989.66,1375.90 1983.62,1371.08 1975.41,1364.60 1966.66,1357.68 1959.12,1351.64 1951.77,1345.78 1943.98,1339.57 1937.40,1334.36 1930.42,1328.73 1923.44,1323.26 1916.45,1317.69 1907.95,1310.86 1897.24,1302.40 1887.04,1294.29 1877.83,1287.03 1864.99,1276.90 1853.68,1267.98 1851.88,1266.52"/>
    </edge>
    <edge id="559.0" from="junction_42" to="node_555_start" priority="-1" type="town" shape="2865.74,2071.53 2858.11,2065.42 2847.09,2056.60 2834.69,2046.68 2824.80,2038.77 2812.59,2029.08 2806.13,2023.95 2793.88,2014.18 2781.52,2004.33 2770.75,1995.73 2760.09,1987.24 2750.79,1979.88 2745.90,1975.99">
        <lane id="559.0_0" index="0" speed="13.89" length="151.68" width="3.66" shape="2860.02,2078.67 2852.39,2072.56 2841.37,2063.74 2828.97,2053.83 2819.10,2045.93 2806.90,2036.25 2800.43,2031.11 2788.18,2021.33 2775.81,2011.48 2765.05,2002.88 2754.40,1994.41 2745.11,1987.05 2741.43,1984.12"/>
        <lane id="559.0_1" index="1" speed="13.89" length="151.68" width="3.66" shape="2862.31,2075.82 2854.68,2069.71 2843.66,2060.89 2831.26,2050.97 2821.38,2043.06 2809.18,2033.38 2802.71,2028.24 2790.46,2018.47 2778.10,2008.62 2767.33,2000.02 2756.68,1991.54 2747.38,1984.18 2743.71,1981.26"/>
        <lane id="559.0_2" index="2" speed="13.89" length="151.68" width="3.66" shape="2864.60,2072.96 2856.97,2066.85 2845.95,2058.03 2833.55,2048.11 2823.66,2040.20 2811.45,2030.51 2804.99,2025.38 2792.74,2015.61 2780.38,2005.76 2769.61,1997.16 2758.95,1988.67 2749.65,1981.31 2745.98,1978.40"/>
    </edge>
    <edge id="560.0" from="node_560_start" to="node_560_end" priority="-1" type="town" shape="1675.27,1123.94 1666.36,1116.78 1659.58,1111.36 1651.58,1104.99 1644.59,1099.40 1631.21,1088.72 1628.18,1086.31 1623.36,1082.51 1616.44,1077.01 1607.41,1069.83 1597.25,1061.78 1587.70,1054.15 1576.30,1045.08 1562.98,1034.39 1550.76,1024.72 1538.15,1014.63 1522.95,1002.57 1505.78,988.83 1494.16,979.59 1479.42,967.92 1469.75,960.23 1458.95,951.57 1451.57,945.74 1439.17,935.82 1422.31,922.39 1412.80,914.86 1401.39,905.75 1387.58,894.78 1372.64,882.82 1364.12,876.08 1353.24,867.37 1344.12,860.09 1332.68,850.94 1322.09,842.40 1309.43,832.28 1299.13,824.12 1285.09,812.93 1273.15,803.48 1262.70,795.30 1251.21,786.52 1239.01,777.37 1225.20,767.11 1212.19,757.68 1200.45,749.35 1191.04,742.75 1173.79,730.75 1167.33,726.39 1161.08,722.19 1153.78,717.42 1146.56,712.71 1139.91,708.45 1133.37,704.26 1125.71,699.46 1118.86,695.07 1112.00,690.84 1105.65,686.85 1097.71,681.90 1090.90,677.65 1085.97,674.61 1079.68,670.62 1072.48,666.20 1064.71,661.32 1057.88,657.06 1051.06,652.81 1043.95,648.38 1036.25,643.57 1028.76,638.88 1021.48,634.35 1012.70,628.91 1001.73,622.04 991.10,615.43 983.66,610.78 974.25,604.92 964.10,598.56 955.36,593.14 948.24,588.71 941.65,584.57 932.70,579.00 924.44,573.84 915.64,568.38 909.82,564.76 902.69,560.38 896.63,556.58 889.85,552.35 883.28,548.27 877.20,544.50 869.95,539.97 862.35,535.24 853.30,529.61 843.54,523.52 835.73,518.66 826.90,513.18 813.40,504.74 805.77,500.01 797.62,494.93 791.62,491.19 782.02,485.21 774.89,480.81 763.09,473.52 751.60,466.40 741.00,459.83 728.40,451.92 715.16,443.67 701.08,434.96 680.25,421.87 658.94,408.59 635.64,393.99 607.48,376.52 576.73,357.34 555.08,343.79 535.60,331.64 513.05,317.58 490.09,303.29 480.82,297.47">
        <lane id="560.0_0" index="0" disallow="all" speed="13.89" length="1451.03" width="3.66" shape="1668.41,1130.17 1660.64,1123.92 1653.87,1118.51 1645.87,1112.14 1638.88,1106.55 1625.50,1095.87 1622.50,1093.49 1617.68,1089.68 1610.75,1084.17 1601.72,1077.00 1591.55,1068.94 1582.00,1061.30 1570.59,1052.23 1557.28,1041.55 1545.06,1031.88 1532.45,1021.79 1517.25,1009.73 1500.07,995.98 1488.47,986.76 1473.73,975.09 1464.04,967.38 1453.25,958.73 1445.87,952.90 1433.46,942.97 1416.62,929.55 1407.10,922.02 1395.69,912.91 1381.87,901.93 1366.94,889.98 1358.42,883.24 1347.53,874.52 1338.41,867.24 1326.95,858.07 1316.36,849.54 1303.73,839.44 1293.44,831.28 1279.40,820.09 1267.49,810.67 1257.10,802.54 1245.69,793.82 1233.54,784.70 1219.79,774.49 1206.86,765.12 1195.17,756.83 1185.80,750.25 1168.62,738.30 1162.22,733.98 1156.03,729.82 1148.78,725.08 1141.59,720.39 1134.97,716.15 1128.48,711.99 1120.81,707.19 1113.99,702.82 1107.17,698.61 1100.80,694.61 1092.87,689.66 1086.07,685.42 1081.11,682.36 1074.84,678.38 1067.65,673.97 1059.85,669.08 1053.04,664.82 1046.22,660.58 1039.11,656.14 1031.40,651.33 1023.91,646.64 1016.65,642.12 1007.86,636.68 996.89,629.80 986.26,623.20 978.82,618.54 969.40,612.68 959.26,606.32 950.53,600.91 943.39,596.47 936.80,592.33 927.86,586.76 919.60,581.61 910.81,576.15 905.01,572.54 897.87,568.16 891.78,564.34 885.01,560.12 878.46,556.04 872.36,552.27 865.11,547.73 857.52,543.01 848.46,537.38 838.70,531.29 830.90,526.43 822.06,520.94 808.56,512.51 800.94,507.78 792.78,502.70 786.78,498.96 777.20,492.99 770.08,488.60 758.28,481.30 746.78,474.18 736.16,467.59 723.55,459.68 710.33,451.44 696.24,442.72 675.40,429.63 654.09,416.35 630.80,401.75 602.65,384.29 571.88,365.10 550.23,351.55 530.76,339.40 508.21,325.35 485.25,311.05 477.25,306.03" type="shoulder"/>
        <lane id="560.0_1" index="1" speed="13.89" length="1451.03" width="3.66" shape="1670.70,1127.31 1662.93,1121.06 1656.16,1115.65 1648.16,1109.28 1641.16,1103.69 1627.79,1093.01 1624.77,1090.62 1619.95,1086.81 1613.02,1081.31 1604.00,1074.13 1593.83,1066.08 1584.28,1058.44 1572.87,1049.37 1559.56,1038.68 1547.34,1029.02 1534.73,1018.92 1519.53,1006.86 1502.36,993.12 1490.75,983.89 1476.01,972.22 1466.32,964.52 1455.53,955.86 1448.15,950.03 1435.75,940.11 1418.89,926.69 1409.38,919.16 1397.97,910.04 1384.16,899.07 1369.22,887.11 1360.70,880.37 1349.81,871.66 1340.69,864.38 1329.24,855.22 1318.65,846.68 1306.01,836.57 1295.71,828.42 1281.67,817.23 1269.75,807.79 1259.34,799.64 1247.90,790.90 1235.73,781.77 1221.95,771.54 1208.99,762.14 1197.28,753.84 1187.90,747.25 1170.69,735.28 1164.26,730.94 1158.05,726.77 1150.78,722.02 1143.58,717.32 1136.95,713.07 1130.43,708.90 1122.77,704.10 1115.94,699.72 1109.10,695.50 1102.74,691.50 1094.80,686.56 1088.00,682.31 1083.06,679.26 1076.77,675.28 1069.58,670.86 1061.80,665.97 1054.98,661.72 1048.16,657.47 1041.04,653.04 1033.34,648.22 1025.85,643.54 1018.58,639.01 1009.80,633.57 998.82,626.70 988.20,620.09 980.75,615.44 971.34,609.58 961.19,603.22 952.46,597.80 945.33,593.37 938.74,589.23 929.80,583.66 921.54,578.50 912.74,573.04 906.93,569.43 899.80,565.05 893.72,561.23 886.95,557.01 880.39,552.93 874.30,549.16 867.05,544.63 859.45,539.90 850.40,534.27 840.64,528.18 832.83,523.32 824.00,517.84 810.50,509.40 802.87,504.67 794.72,499.59 788.72,495.85 779.13,489.88 772.01,485.48 760.20,478.19 748.71,471.07 738.09,464.49 725.49,456.57 712.26,448.33 698.18,439.62 677.34,426.52 656.03,413.25 632.74,398.65 604.58,381.18 573.82,362.00 552.17,348.45 532.69,336.30 510.15,322.24 487.18,307.95 479.20,302.93"/>
        <lane id="560.0_2" index="2" speed="13.89" length="1451.03" width="3.66" shape="1672.99,1124.46 1665.22,1118.21 1658.44,1112.79 1650.44,1106.42 1643.45,1100.83 1630.07,1090.15 1627.04,1087.75 1622.22,1083.94 1615.30,1078.44 1606.27,1071.26 1596.11,1063.21 1586.56,1055.58 1575.16,1046.51 1561.84,1035.82 1549.62,1026.15 1537.01,1016.06 1521.81,1004.00 1504.64,990.26 1493.02,981.02 1478.28,969.35 1468.61,961.66 1457.81,953.00 1450.43,947.17 1438.03,937.25 1421.17,923.82 1411.66,916.29 1400.25,907.18 1386.44,896.21 1371.50,884.25 1362.98,877.51 1352.10,868.80 1342.98,861.52 1331.53,852.37 1320.94,843.83 1308.29,833.71 1297.99,825.55 1283.95,814.36 1272.02,804.92 1261.58,796.75 1250.11,787.98 1237.92,778.84 1224.12,768.59 1211.12,759.17 1199.39,750.85 1189.99,744.25 1172.76,732.26 1166.31,727.91 1160.07,723.72 1152.78,718.95 1145.57,714.25 1138.92,709.99 1132.39,705.81 1124.73,701.01 1117.89,696.62 1111.03,692.39 1104.68,688.40 1096.74,683.45 1089.93,679.20 1085.00,676.16 1078.71,672.17 1071.51,667.75 1063.74,662.87 1056.91,658.61 1050.09,654.36 1042.98,649.93 1035.28,645.12 1027.79,640.43 1020.51,635.90 1011.73,630.46 1000.76,623.59 990.13,616.98 982.69,612.33 973.28,606.47 963.13,600.11 954.39,594.69 947.27,590.26 940.68,586.12 931.73,580.55 923.47,575.39 914.67,569.93 908.86,566.32 901.73,561.94 895.66,558.13 888.88,553.90 882.32,549.82 876.23,546.05 868.98,541.52 861.38,536.79 852.33,531.16 842.57,525.07 834.76,520.21 825.93,514.73 812.43,506.29 804.80,501.56 796.65,496.48 790.65,492.74 781.06,486.77 773.93,482.37 762.13,475.08 750.64,467.96 740.03,461.38 727.43,453.47 714.19,445.22 700.11,436.51 679.28,423.42 657.97,410.14 634.67,395.54 606.51,378.07 575.76,358.89 554.11,345.34 534.63,333.19 512.08,319.13 489.12,304.84 481.14,299.83"/>
    </edge>
    <edge id="562.0" from="junction_105" to="node_560_start" priority="-1" type="town" shape="1709.64,1151.25 1694.76,1139.31 1680.84,1128.22 1675.27,1123.94">
        <lane id="562.0_0" index="0" speed="13.89" length="42.37" width="3.66" shape="1706.20,1155.53 1691.33,1143.60 1677.46,1132.54 1673.07,1129.18"/>
        <lane id="562.0_1" index="1" speed="13.89" length="42.37" width="3.66" shape="1708.49,1152.68 1693.62,1140.74 1679.71,1129.66 1675.30,1126.27"/>
    </edge>
    <edge id="563.0" from="node_557_end" to="junction_105" priority="-1" type="town" shape="1852.90,1265.00 1846.10,1259.58 1833.97,1250.02 1820.91,1239.64 1805.08,1227.06 1792.60,1217.13 1781.45,1208.29">
        <lane id="563.0_0" index="0" disallow="all" speed="13.89" length="91.05" width="3.66" shape="1847.08,1272.06 1840.42,1266.76 1828.29,1257.19 1815.22,1246.80 1799.39,1234.22 1786.91,1224.29 1775.77,1215.46" type="shoulder"/>
        <lane id="563.0_1" index="1" speed="13.89" length="91.05" width="3.66" shape="1849.36,1269.20 1842.69,1263.89 1830.56,1254.32 1817.49,1243.94 1801.66,1231.36 1789.19,1221.43 1778.04,1212.59"/>
        <lane id="563.0_2" index="2" speed="13.89" length="91.05" width="3.66" shape="1851.64,1266.33 1844.96,1261.02 1832.83,1251.45 1819.77,1241.07 1803.94,1228.49 1791.46,1218.56 1780.31,1209.72"/>
    </edge>
    <edge id="571.0" from="junction_105" to="node_571_end" priority="-1" type="town" shape="1705.00,1157.57 1686.38,1144.20 1669.18,1132.16">
        <lane id="571.0_0" index="0" speed="13.89" length="43.74" width="3.66" shape="1703.93,1159.06 1685.32,1145.69 1668.26,1133.75"/>
    </edge>
    <edge id="573.0" from="node_573_start" to="junction_42" priority="-1" type="town" shape="3148.11,2297.18 3133.01,2284.99 3122.81,2276.68 3111.64,2267.70 3103.69,2261.34 3091.55,2251.60 3074.74,2238.13 3065.08,2230.47 3057.80,2224.67 3049.09,2217.73 3042.11,2212.14 3019.75,2194.35 3011.07,2187.41 3001.29,2179.58 2990.24,2170.75 2975.62,2159.12 2964.53,2150.30">
        <lane id="573.0_0" index="0" disallow="all" speed="13.89" length="235.07" width="3.66" shape="3142.36,2304.30 3127.25,2292.10 3117.05,2283.79 3105.91,2274.84 3097.97,2268.48 3085.83,2258.74 3069.03,2245.28 3059.39,2237.63 3052.10,2231.83 3043.38,2224.88 3036.41,2219.30 3014.05,2201.51 3005.35,2194.55 2995.57,2186.73 2984.54,2177.91 2969.92,2166.28 2958.83,2157.46" type="shoulder"/>
        <lane id="573.0_1" index="1" speed="13.89" length="235.07" width="3.66" shape="3144.66,2301.45 3129.55,2289.26 3119.36,2280.95 3108.20,2271.98 3100.26,2265.62 3088.12,2255.88 3071.31,2242.42 3061.66,2234.77 3054.38,2228.96 3045.66,2222.02 3038.69,2216.43 3016.33,2198.64 3007.64,2191.70 2997.86,2183.87 2986.82,2175.04 2972.20,2163.42 2961.11,2154.60"/>
        <lane id="573.0_2" index="2" speed="13.89" length="235.07" width="3.66" shape="3146.96,2298.60 3131.86,2286.41 3121.66,2278.10 3110.49,2269.13 3102.55,2262.77 3090.41,2253.03 3073.60,2239.56 3063.94,2231.90 3056.66,2226.10 3047.95,2219.16 3040.97,2213.57 3018.61,2195.78 3009.93,2188.84 3000.15,2181.01 2989.10,2172.18 2974.48,2160.55 2963.39,2151.73"/>
    </edge>
    <edge id="574.0" from="node_555_start" to="node_555_end" priority="-1" type="town" shape="2741.43,1981.77 2707.72,1953.70 2681.68,1932.27 2650.38,1906.34 2610.07,1872.64">
        <lane id="574.0_0" index="0" disallow="all" speed="13.89" length="164.97" width="3.66" shape="2736.61,1984.90 2704.22,1957.93 2678.18,1936.50 2646.87,1910.56 2609.71,1879.49" type="shoulder"/>
        <lane id="574.0_1" index="1" speed="13.89" length="164.97" width="3.66" shape="2738.95,1982.09 2706.55,1955.11 2680.51,1933.68 2649.21,1907.75 2612.05,1876.68"/>
    </edge>
    <edge id="576.0" from="node_576_start" to="junction_42" priority="-1" type="town" shape="3145.97,2323.54 3110.41,2292.26 3068.22,2255.16 3036.71,2227.30 3021.83,2214.19 3006.98,2201.07 2994.87,2190.37 2984.46,2181.25 2972.11,2170.30 2958.19,2158.05">
        <lane id="576.0_0" index="0" speed="13.89" length="249.98" width="3.66" shape="3144.76,2324.92 3109.20,2293.63 3067.01,2256.53 3035.50,2228.67 3020.62,2215.56 3005.77,2202.44 2993.66,2191.74 2983.25,2182.62 2970.90,2171.67 2957.22,2159.64"/>
    </edge>
    <edge id="582.0" from="node_571_end" to="node_582_end" priority="-1" type="town" shape="1669.18,1132.16 1659.55,1125.52 1643.18,1114.15 1626.28,1102.58 1613.00,1093.70 1595.85,1082.23 1576.70,1069.59 1558.90,1058.04 1541.78,1047.14 1524.50,1036.15 1505.54,1024.21 1483.32,1010.56 1460.12,996.31 1432.24,978.58">
        <lane id="582.0_0" index="0" speed="13.89" length="282.18" width="3.66" shape="1668.01,1133.58 1658.51,1127.02 1642.14,1115.66 1625.25,1104.10 1611.98,1095.22 1594.84,1083.75 1575.70,1071.12 1557.91,1059.58 1540.80,1048.68 1523.52,1037.70 1504.57,1025.76 1482.36,1012.12 1459.15,997.86 1431.26,980.12"/>
    </edge>
    <edge id="592.0" from="node_560_end" to="node_592_end" priority="-1" type="town" shape="480.82,297.47 474.84,294.10 466.61,289.31 453.35,281.65 448.99,279.11 437.16,272.16 419.82,261.79 400.64,249.92 382.98,239.05 365.23,227.98 350.57,218.87">
        <lane id="592.0_0" index="0" speed="13.89" length="150.63" width="3.66" shape="476.79,301.50 472.11,298.86 463.86,294.06 450.60,286.40 446.21,283.85 434.36,276.88 416.97,266.48 397.76,254.59 380.09,243.72 362.33,232.64 347.79,223.61"/>
        <lane id="592.0_1" index="1" speed="13.89" length="150.63" width="3.66" shape="478.59,298.31 473.93,295.69 465.69,290.89 452.43,283.23 448.06,280.69 436.23,273.73 418.87,263.35 399.68,251.48 382.02,240.61 364.26,229.53 349.72,220.50"/>
    </edge>
    <edge id="593.0" from="node_594_start" to="node_594_end" priority="-1" type="town" shape="233.75,153.72 129.41,84.75">
        <lane id="593.0_0" index="0" speed="13.89" length="118.94" width="3.66" shape="231.18,154.22 131.96,88.63"/>
    </edge>
    <edge id="594.0" from="node_594_start" to="node_594_end" priority="-1" type="town" shape="237.01,147.91 227.77,142.17 216.65,135.21 201.99,126.07 188.06,117.38 170.60,106.58 149.80,93.59 137.19,85.69 131.29,82.02">
        <lane id="594.0_0" index="0" speed="13.89" length="119.18" width="3.66" shape="232.94,151.84 224.86,146.83 213.74,139.87 199.08,130.73 185.16,122.04 167.70,111.24 146.89,98.24 134.28,90.35 131.79,88.80"/>
        <lane id="594.0_1" index="1" speed="13.89" length="119.18" width="3.66" shape="234.87,148.73 226.80,143.72 215.68,136.76 201.02,127.62 187.09,118.93 169.63,108.13 148.83,95.14 136.22,87.24 133.73,85.69"/>
    </edge>
    <edge id="595.0" from="node_595_start" to="node_595_end" priority="-1" type="town" shape="502.97,334.36 492.16,326.91 478.73,317.64 465.07,308.54 451.41,299.44 437.18,290.27 425.66,282.99 411.57,274.18 394.59,263.36 375.77,250.86 367.22,245.19 353.37,235.82 343.95,229.21">
        <lane id="595.0_0" index="0" speed="13.89" length="190.53" width="3.66" shape="501.93,335.87 491.12,328.42 477.70,319.15 464.06,310.06 450.41,300.97 436.20,291.81 424.69,284.54 410.59,275.73 393.59,264.89 374.76,252.38 366.20,246.71 352.33,237.33 343.03,230.80"/>
    </edge>
    <edge id="601.0" from="junction_46" to="node_594_start" priority="-1" type="town" shape="281.13,175.34 273.40,170.56 261.68,163.33 252.35,157.47 239.05,149.23 237.01,147.91">
        <lane id="601.0_0" index="0" speed="13.89" length="50.35" width="3.66" shape="276.32,183.12 268.59,178.35 256.85,171.10 247.51,165.24 234.21,157.00 233.48,156.52"/>