<?xml version='1.0' encoding='utf-8'?>
<edges>
    <edge id="555.0" from="node_555_start" to="node_555_end" numLanes="2" speed="13.89" type="town" shape="598271.48,3273776.17 598261.99,3273768.63 598261.99,3273768.63 598251.27,3273760.03 598251.27,3273760.03 598240.03,3273751.29 598240.03,3273751.29 598227.21,3273741.10 598227.21,3273741.10 598216.23,3273732.41 598216.23,3273732.41 598207.35,3273725.32 598207.35,3273725.32 598198.53,3273718.25 598198.53,3273718.25 598185.28,3273707.69 598185.28,3273707.69 598174.97,3273699.46 598174.97,3273699.46 598162.79,3273689.84 598162.79,3273689.84 598149.66,3273679.47 598149.66,3273679.47 598137.86,3273670.08">
        <lane index="0" width="3.66" />
        <lane index="1" width="3.66" />
    </edge>
    <edge id="557.0" from="node_555_end" to="node_557_end" numLanes="3" speed="13.89" type="town" shape="598137.86,3273670.08 598131.46,3273664.97 598131.46,3273664.97 598126.50,3273661.03 598126.50,3273661.03 598119.92,3273655.83 598119.92,3273655.83 598112.35,3273649.83 598112.35,3273649.83 598103.27,3273642.57 598103.27,3273642.57 598094.31,3273635.40 598094.31,3273635.40 598087.70,3273630.11 598087.70,3273630.11 598081.54,3273625.12 598081.54,3273625.12 598075.51,3273620.30 598075.51,3273620.30 598068.89,3273614.81 598068.89,3273614.81 598062.97,3273609.75 598062.97,3273609.75 598056.85,3273604.75 598056.85,3273604.75 598051.22,3273600.03 598051.22,3273600.03 598046.64,3273596.27 598046.64,3273596.27 598042.01,3273592.49 598042.01,3273592.49 598035.33,3273586.98 598035.33,3273586.98 598029.03,3273581.78 598029.03,3273581.78 598021.92,3273575.93 598021.92,3273575.93 598014.91,3273570.09 598014.91,3273570.09 598006.46,3273563.10 598006.46,3273563.10 598000.81,3273558.41 598000.81,3273558.41 597993.08,3273552.00 597993.08,3273552.00 597986.62,3273546.69 597986.62,3273546.69 597972.99,3273535.40 597972.99,3273535.40 597961.48,3273525.83 597961.48,3273525.83 597949.85,3273516.35 597949.85,3273516.35 597941.17,3273509.30 597941.17,3273509.30 597933.54,3273503.18 597933.54,3273503.18 597924.04,3273495.57 597924.04,3273495.57 597914.92,3273488.25 597914.92,3273488.25 597903.40,3273479.04 597903.40,3273479.04 597896.55,3273473.61 597896.55,3273473.61 597887.07,3273466.04 597887.07,3273466.04 597871.07,3273453.30 597871.07,3273453.30 597859.42,3273444.18 597859.42,3273444.18 597842.14,3273430.77 597842.14,3273430.77 597829.75,3273421.12 597829.75,3273421.12 597821.69,3273414.95 597821.69,3273414.95 597815.56,3273410.26 597815.56,3273410.26 597791.64,3273391.88 597791.64,3273391.88 597778.21,3273381.67 597778.21,3273381.67 597765.49,3273371.77 597765.49,3273371.77 597748.68,3273358.76 597748.68,3273358.76 597737.00,3273349.76 597737.00,3273349.76 597723.91,3273339.56 597723.91,3273339.56 597711.05,3273329.75 597711.05,3273329.75 597700.23,3273321.38 597700.23,3273321.38 597690.70,3273313.83 597690.70,3273313.83 597683.31,3273307.84 597683.31,3273307.84 597674.80,3273300.97 597674.80,3273300.97 597666.57,3273294.36 597666.57,3273294.36 597657.85,3273287.31 597657.85,3273287.31 597647.98,3273279.43 597647.98,3273279.43 597636.54,3273270.26 597636.54,3273270.26 597628.18,3273263.57 597628.18,3273263.57 597619.45,3273256.69 597619.45,3273256.69 597613.31,3273251.79 597613.31,3273251.79 597605.92,3273245.96 597605.92,3273245.96 597598.09,3273239.69 597598.09,3273239.69 597580.70,3273225.82 597580.70,3273225.82 597570.47,3273217.68 597570.47,3273217.68 597563.67,3273212.32 597563.67,3273212.32 597558.76,3273208.41 597558.76,3273208.41 597550.85,3273202.07 597550.85,3273202.07 597541.57,3273194.72 597541.57,3273194.72 597530.68,3273186.01 597530.68,3273186.01 597523.98,3273180.65 597523.98,3273180.65 597516.38,3273174.65 597516.38,3273174.65 597510.34,3273169.83 597510.34,3273169.83 597502.12,3273163.34 597502.12,3273163.34 597493.38,3273156.43 597493.38,3273156.43 597485.84,3273150.39 597485.84,3273150.39 597478.49,3273144.53 597478.49,3273144.53 597470.70,3273138.32 597470.70,3273138.32 597464.12,3273133.11 597464.12,3273133.11 597457.14,3273127.48 597457.14,3273127.48 597450.15,3273122.00 597450.15,3273122.00 597443.17,3273116.44 597443.17,3273116.44 597434.67,3273109.61 597434.67,3273109.61 597423.96,3273101.15 597423.96,3273101.15 597413.76,3273093.04 597413.76,3273093.04 597404.54,3273085.77 597404.54,3273085.77 597391.70,3273075.64 597391.70,3273075.64 597380.40,3273066.72 597380.40,3273066.72 597378.48,3273065.18">
        <lane index="0" width="3.66" type="shoulder" disallow="all" />
        <lane index="1" width="3.66" />
        <lane index="2" width="3.66" />
    </edge>
    <edge id="559.0" from="junction_42" to="node_555_start" numLanes="3" speed="13.89" type="town" shape="598391.32,3273871.71 598383.69,3273865.60 598383.69,3273865.60 598372.67,3273856.78 598372.67,3273856.78 598360.27,3273846.86 598360.27,3273846.86 598350.38,3273838.95 598350.38,3273838.95 598338.17,3273829.26 598338.17,3273829.26 598331.71,3273824.13 598331.71,3273824.13 598319.46,3273814.36 598319.46,3273814.36 598307.10,3273804.51 598307.10,3273804.51 598296.33,3273795.91 598296.33,3273795.91 598285.67,3273787.42 598285.67,3273787.42 598276.37,3273780.06 598276.37,3273780.06 598271.48,3273776.17">
        <lane index="0" width="3.66" />
        <lane index="1" width="3.66" />
        <lane index="2" width="3.66" />
    </edge>
    <edge id="560.0" from="node_560_start" to="node_560_end" numLanes="3" speed="13.89" type="town" shape="597200.85,3272924.12 597191.94,3272916.96 597191.94,3272916.96 597185.16,3272911.54 597185.16,3272911.54 597177.16,3272905.17 597177.16,3272905.17 597170.17,3272899.58 597170.17,3272899.58 597156.79,3272888.90 597156.79,3272888.90 597153.76,3272886.49 597153.76,3272886.49 597148.94,3272882.69 597148.94,3272882.69 597142.02,3272877.19 597142.02,3272877.19 597132.99,3272870.01 597132.99,3272870.01 597122.83,3272861.96 597122.83,3272861.96 597113.28,3272854.33 597113.28,3272854.33 597101.88,3272845.26 597101.88,3272845.26 597088.56,3272834.57 597088.56,3272834.57 597076.34,3272824.90 597076.34,3272824.90 597063.73,3272814.81 597063.73,3272814.81 597048.53,3272802.75 597048.53,3272802.75 597031.36,3272789.01 597031.36,3272789.01 597019.74,3272779.77 597019.74,3272779.77 597005.00,3272768.10 597005.00,3272768.10 596995.33,3272760.41 596995.33,3272760.41 596984.53,3272751.75 596984.53,3272751.75 596977.15,3272745.92 596977.15,3272745.92 596964.75,3272736.00 596964.75,3272736.00 596947.89,3272722.57 596947.89,3272722.57 596938.38,3272715.04 596938.38,3272715.04 596926.97,3272705.93 596926.97,3272705.93 596913.16,3272694.96 596913.16,3272694.96 596898.22,3272683.00 596898.22,3272683.00 596889.70,3272676.26 596889.70,3272676.26 596878.82,3272667.55 596878.82,3272667.55 596869.70,3272660.27 596869.70,3272660.27 596858.26,3272651.12 596858.26,3272651.12 596847.67,3272642.58 596847.67,3272642.58 596835.01,3272632.46 596835.01,3272632.46 596824.71,3272624.30 596824.71,3272624.30 596810.67,3272613.11 596810.67,3272613.11 596798.73,3272603.66 596798.73,3272603.66 596788.28,3272595.48 596788.28,3272595.48 596776.79,3272586.70 596776.79,3272586.70 596764.59,3272577.55 596764.59,3272577.55 596750.78,3272567.29 596750.78,3272567.29 596737.77,3272557.86 596737.77,3272557.86 596726.03,3272549.53 596726.03,3272549.53 596716.62,3272542.93 596716.62,3272542.93 596699.37,3272530.93 596699.37,3272530.93 596692.91,3272526.57 596692.91,3272526.57 596686.66,3272522.37 596686.66,3272522.37 596679.36,3272517.60 596679.36,3272517.60 596672.14,3272512.89 596672.14,3272512.89 596665.49,3272508.63 596665.49,3272508.63 596658.95,3272504.44 596658.95,3272504.44 596651.29,3272499.64 596651.29,3272499.64 596644.44,3272495.25 596644.44,3272495.25 596637.58,3272491.02 596637.58,3272491.02 596631.23,3272487.03 596631.23,3272487.03 596623.29,3272482.08 596623.29,3272482.08 596616.48,3272477.83 596616.48,3272477.83 596611.55,3272474.79 596611.55,3272474.79 596605.26,3272470.80 596605.26,3272470.80 596598.06,3272466.38 596598.06,3272466.38 596590.29,3272461.50 596590.29,3272461.50 596583.46,3272457.24 596583.46,3272457.24 596576.64,3272452.99 596576.64,3272452.99 596569.53,3272448.56 596569.53,3272448.56 596561.83,3272443.75 596561.83,3272443.75 596554.34,3272439.06 596554.34,3272439.06 596547.06,3272434.53 596547.06,3272434.53 596538.28,3272429.09 596538.28,3272429.09 596527.31,3272422.22 596527.31,3272422.22 596516.68,3272415.61 596516.68,3272415.61 596509.24,3272410.96 596509.24,3272410.96 596499.83,3272405.10 596499.83,3272405.10 596489.68,3272398.74 596489.68,3272398.74 596480.94,3272393.32 596480.94,3272393.32 596473.82,3272388.89 596473.82,3272388.89 596467.23,3272384.75 596467.23,3272384.75 596458.28,3272379.18 596458.28,3272379.18 596450.02,3272374.02 596450.02,3272374.02 596441.22,3272368.56 596441.22,3272368.56 596435.40,3272364.94 596435.40,3272364.94 596428.27,3272360.56 596428.27,3272360.56 596422.21,3272356.76 596422.21,3272356.76 596415.43,3272352.53 596415.43,3272352.53 596408.86,3272348.45 596408.86,3272348.45 596402.78,3272344.68 596402.78,3272344.68 596395.53,3272340.15 596395.53,3272340.15 596387.93,3272335.42 596387.93,3272335.42 596378.88,3272329.79 596378.88,3272329.79 596369.12,3272323.70 596369.12,3272323.70 596361.31,3272318.84 596361.31,3272318.84 596352.48,3272313.36 596352.48,3272313.36 596338.98,3272304.92 596338.98,3272304.92 596331.35,3272300.19 596331.35,3272300.19 596323.20,3272295.11 596323.20,3272295.11 596317.20,3272291.37 596317.20,3272291.37 596307.60,3272285.39 596307.60,3272285.39 596300.47,3272280.99 596300.47,3272280.99 596288.67,3272273.70 596288.67,3272273.70 596277.18,3272266.58 596277.18,3272266.58 596266.58,3272260.01 596266.58,3272260.01 596253.98,3272252.10 596253.98,3272252.10 596240.74,3272243.85 596240.74,3272243.85 596226.66,3272235.14 596226.66,3272235.14 596205.83,3272222.05 596205.83,3272222.05 596184.52,3272208.77 596184.52,3272208.77 596161.22,3272194.17 596161.22,3272194.17 596133.06,3272176.70 596133.06,3272176.70 596102.31,3272157.52 596102.31,3272157.52 596080.66,3272143.97 596080.66,3272143.97 596061.18,3272131.82 596061.18,3272131.82 596038.63,3272117.76 596038.63,3272117.76 596015.67,3272103.47 596015.67,3272103.47 596006.40,3272097.65">
        <lane index="0" width="3.66" type="shoulder" disallow="all" />
        <lane index="1" width="3.66" />
        <lane index="2" width="3.66" />
    </edge>
    <edge id="562.0" from="junction_105" to="node_560_start" numLanes="2" speed="13.89" type="town" shape="597235.22,3272951.43 597220.34,3272939.49 597220.34,3272939.49 597206.42,3272928.40 597206.42,3272928.40 597200.85,3272924.12">
        <lane index="0" width="3.66" />
        <lane index="1" width="3.66" />
    </edge>
    <edge id="563.0" from="node_557_end" to="junction_105" numLanes="3" speed="13.89" type="town" shape="597378.48,3273065.18 597371.68,3273059.76 597371.68,3273059.76 597359.55,3273050.20 597359.55,3273050.20 597346.49,3273039.82 597346.49,3273039.82 597330.66,3273027.24 597330.66,3273027.24 597318.18,3273017.31 597318.18,3273017.31 597307.03,3273008.47">
        <lane index="0" width="3.66" type="shoulder" disallow="all" />
        <lane index="1" width="3.66" />
        <lane index="2" width="3.66" />
    </edge>
    <edge id="571.0" from="junction_105" to="node_571_end" numLanes="1" speed="13.89" type="town" shape="597230.58,3272957.75 597211.96,3272944.38 597211.96,3272944.38 597194.76,3272932.34">
        <lane index="0" width="3.66" />
    </edge>
    <edge id="573.0" from="node_573_start" to="junction_42" numLanes="3" speed="13.89" type="town" shape="598673.69,3274097.36 598658.59,3274085.17 598658.59,3274085.17 598648.39,3274076.86 598648.39,3274076.86 598637.22,3274067.88 598637.22,3274067.88 598629.27,3274061.52 598629.27,3274061.52 598617.13,3274051.78 598617.13,3274051.78 598600.32,3274038.31 598600.32,3274038.31 598590.66,3274030.65 598590.66,3274030.65 598583.38,3274024.85 598583.38,3274024.85 598574.67,3274017.91 598574.67,3274017.91 598567.69,3274012.32 598567.69,3274012.32 598545.33,3273994.53 598545.33,3273994.53 598536.65,3273987.59 598536.65,3273987.59 598526.87,3273979.76 598526.87,3273979.76 598515.82,3273970.93 598515.82,3273970.93 598501.20,3273959.30 598501.20,3273959.30 598490.11,3273950.48">
        <lane index="0" width="3.66" type="shoulder" disallow="all" />
        <lane index="1" width="3.66" />
        <lane index="2" width="3.66" />
    </edge>
    <edge id="574.0" from="node_555_start" to="node_555_end" numLanes="2" speed="13.89" type="town" shape="598267.01,3273781.95 598233.30,3273753.88 598233.30,3273753.88 598207.26,3273732.45 598207.26,3273732.45 598175.96,3273706.52 598175.96,3273706.52 598135.65,3273672.82">
        <lane index="0" width="3.66" type="shoulder" disallow="all" />
        <lane index="1" width="3.66" />
    </edge>
    <edge id="576.0" from="node_576_start" to="junction_42" numLanes="1" speed="13.89" type="town" shape="598671.55,3274123.72 598635.99,3274092.44 598635.99,3274092.44 598593.80,3274055.34 598593.80,3274055.34 598562.29,3274027.48 598562.29,3274027.48 598547.41,3274014.37 598547.41,3274014.37 598532.56,3274001.25 598532.56,3274001.25 598520.45,3273990.55 598520.45,3273990.55 598510.04,3273981.43 598510.04,3273981.43 598497.69,3273970.48 598497.69,3273970.48 598483.77,3273958.23">
        <lane index="0" width="3.66" />
    </edge>
    <edge id="582.0" from="node_571_end" to="node_582_end" numLanes="1" speed="13.89" type="town" shape="597194.76,3272932.34 597185.13,3272925.70 597185.13,3272925.70 597168.76,3272914.33 597168.76,3272914.33 597151.86,3272902.76 597151.86,3272902.76 597138.58,3272893.88 597138.58,3272893.88 597121.43,3272882.41 597121.43,3272882.41 597102.28,3272869.77 597102.28,3272869.77 597084.48,3272858.22 597084.48,3272858.22 597067.36,3272847.32 597067.36,3272847.32 597050.08,3272836.33 597050.08,3272836.33 597031.12,3272824.39 597031.12,3272824.39 597008.90,3272810.74 597008.90,3272810.74 596985.70,3272796.49 596985.70,3272796.49 596957.82,3272778.76">
        <lane index="0" width="3.66" />
    </edge>
    <edge id="592.0" from="node_560_end" to="node_592_end" numLanes="2" speed="13.89" type="town" shape="596006.40,3272097.65 596000.42,3272094.28 596000.42,3272094.28 595992.19,3272089.49 595992.19,3272089.49 595978.93,3272081.83 595978.93,3272081.83 595974.57,3272079.29 595974.57,3272079.29 595962.74,3272072.34 595962.74,3272072.34 595945.40,3272061.97 595945.40,3272061.97 595926.22,3272050.10 595926.22,3272050.10 595908.56,3272039.23 595908.56,3272039.23 595890.81,3272028.16 595890.81,3272028.16 595876.15,3272019.05">
        <lane index="0" width="3.66" />
        <lane index="1" width="3.66" />
    </edge>
    <edge id="593.0" from="node_594_start" to="node_594_end" numLanes="1" speed="13.89" type="town" shape="595759.33,3271953.90 595654.99,3271884.93">
        <lane index="0" width="3.66" />
    </edge>
    <edge id="594.0" from="node_594_start" to="node_594_end" numLanes="2" speed="13.89" type="town" shape="595762.59,3271948.09 595753.35,3271942.35 595753.35,3271942.35 595742.23,3271935.39 595742.23,3271935.39 595727.57,3271926.25 595727.57,3271926.25 595713.64,3271917.56 595713.64,3271917.56 595696.18,3271906.76 595696.18,3271906.76 595675.38,3271893.77 595675.38,3271893.77 595662.77,3271885.87 595662.77,3271885.87 595656.87,3271882.20">
        <lane index="0" width="3.66" />
        <lane index="1" width="3.66" />
    </edge>
    <edge id="595.0" from="node_595_start" to="node_595_end" numLanes="1" speed="13.89" type="town" shape="596028.55,3272134.54 596017.74,3272127.09 596017.74,3272127.09 596004.31,3272117.82 596004.31,3272117.82 595990.65,3272108.72 595990.65,3272108.72 595976.99,3272099.62 595976.99,3272099.62 595962.76,3272090.45 595962.76,3272090.45 595951.24,3272083.17 595951.24,3272083.17 595937.15,3272074.36 595937.15,3272074.36 595920.17,3272063.54 595920.17,3272063.54 595901.35,3272051.04 595901.35,3272051.04 595892.80,3272045.37 595892.80,3272045.37 595878.95,3272036.00 595878.95,3272036.00 595869.53,3272029.39">
        <lane index="0" width="3.66" />
    </edge>
    <edge id="601.0" from="junction_46" to="node_594_start" numLanes="3" speed="13.89" type="town" shape="595806.71,3271975.52 595798.98,3271970.74 595798.98,3271970.74 595787.26,3271963.51 595787.26,3271963.51 595777.93,3271957.65 595777.93,3271957.65 595764.63,3271949.41 595764.63,3271949.41 595762.59,3271948.09">
        <lane index="0" width="3.66" />
        <lane index="1" width="3.66" />
        <lane index="2" width="3.66" />
    </edge>
    <edge id="609.0" from="node_592_end" to="junction_46" numLanes="2" speed="13.89" type="town" shape="595876.15,3272019.05 595873.32,3272017.27 595873.32,3272017.27 595867.89,3272013.93 595867.89,3272013.93 595861.80,3272010.10 595861.80,3272010.10 595852.67,3272004.37 595852.67,3272004.37 595846.21,3272000.32 595846.21,3272000.32 595839.05,3271995.78 595839.05,3271995.78 595828.21,3271989.05 595828.21,3271989.05 595820.20,3271984.03 595820.20,3271984.03 595816.18,3271981.50">
        <lane index="0" width="3.66" />
        <lane index="1" width="3.66" />
    </edge>
    <edge id="613.0" from="node_594_end" to="node_613_end" numLanes="2" speed="13.89" type="town" shape="595656.87,3271882.20 595652.50,3271879.48 595652.50,3271879.48 595637.51,3271870.07 595637.51,3271870.07 595619.85,3271859.05 595619.85,3271859.05 595604.84,3271849.69 595604.84,3271849.69 595586.06,3271837.86 595586.06,3271837.86 595569.83,3271827.85 595569.83,3271827.85 595550.44,3271815.81 595550.44,3271815.81 595525.58,3271800.18">
        <lane index="0" width="3.66" />
        <lane index="1" width="3.66" />
    </edge>
    <edge id="622.0" from="node_595_end" to="junction_46" numLanes="1" speed="13.89" type="town" shape="595869.53,3272029.39 595864.79,3272026.13 595864.79,3272026.13 595849.85,3272015.56 595849.85,3272015.56 595834.16,3272004.32 595834.16,3272004.32 595815.47,3271990.61 595815.47,3271990.61 595812.15,3271988.13">
        <lane index="0" width="3.66" />
    </edge>
</edges>