<?xml version='1.0' encoding='utf-8'?>
<connections>
    <connection from="563.0" to="571.0" fromLane="1" toLane="0" />
    <connection from="563.0" to="562.0" fromLane="1" toLane="0" />
    <connection from="563.0" to="562.0" fromLane="2" toLane="1" />
    <connection from="573.0" to="559.0" fromLane="2" toLane="2" />
    <connection from="573.0" to="559.0" fromLane="1" toLane="1" />
    <connection from="609.0" to="601.0" fromLane="1" toLane="2" />
    <connection from="609.0" to="601.0" fromLane="0" toLane="1" />
</connections>