<?xml version='1.0' encoding='utf-8'?>
<nodes>
    <node id="node_555_start" x="598271.478543423" y="3273776.1670868266" type="priority" />
    <node id="node_555_end" x="598137.8644076809" y="3273670.0757782366" type="priority" />
    <node id="node_557_end" x="597378.4793314297" y="3273065.18455024" type="priority" />
    <node id="node_560_start" x="597200.849270962" y="3272924.1197845833" type="priority" />
    <node id="node_560_end" x="596006.3998793954" y="3272097.651309766" type="priority" />
    <node id="node_571_end" x="597194.7585727201" y="3272932.3367035277" type="priority" />
    <node id="node_573_start" x="598673.6916643963" y="3274097.3597726366" type="priority" />
    <node id="node_574_start" x="598267.0139845316" y="3273781.9479340445" type="priority" />
    <node id="node_574_end" x="598135.6515170552" y="3273672.819308509" type="priority" />
    <node id="node_576_start" x="598671.5511472244" y="3274123.7231610273" type="priority" />
    <node id="node_582_end" x="596957.8225985984" y="3272778.756869544" type="priority" />
    <node id="node_592_end" x="595876.1537726996" y="3272019.0524511123" type="priority" />
    <node id="node_593_start" x="595759.3281527972" y="3271953.8996918094" type="priority" />
    <node id="node_593_end" x="595654.9900491976" y="3271884.9308874607" type="priority" />
    <node id="node_594_start" x="595762.5938387441" y="3271948.0880462714" type="priority" />
    <node id="node_594_end" x="595656.8667841356" y="3271882.2016251446" type="priority" />
    <node id="node_595_start" x="596028.5508089879" y="3272134.54208671" type="priority" />
    <node id="node_595_end" x="595869.5270641482" y="3272029.389358575" type="priority" />
    <node id="node_613_end" x="595525.5823253315" y="3271800.18025781" type="priority" />
    <node id="node_554_start" x="598772.7242174794" y="3274177.9959692704" type="priority" />
    <node id="node_614_end" x="595471.0815254318" y="3271763.866354277" type="priority" />
    <node id="junction_63" x="0.0" y="0.0" type="priority" />
    <node id="junction_1" x="0.0" y="0.0" type="priority" />
    <node id="junction_70" x="0.0" y="0.0" type="priority" />
    <node id="junction_2" x="0.0" y="0.0" type="priority" />
    <node id="junction_6" x="0.0" y="0.0" type="priority" />
    <node id="junction_9" x="0.0" y="0.0" type="priority" />
    <node id="junction_64" x="0.0" y="0.0" type="priority" />
    <node id="junction_10" x="0.0" y="0.0" type="priority" />
    <node id="junction_73" x="0.0" y="0.0" type="priority" />
    <node id="junction_11" x="0.0" y="0.0" type="priority" />
    <node id="junction_74" x="0.0" y="0.0" type="priority" />
    <node id="junction_77" x="0.0" y="0.0" type="priority" />
    <node id="junction_75" x="0.0" y="0.0" type="priority" />
    <node id="junction_3" x="0.0" y="0.0" type="priority" />
    <node id="junction_16" x="0.0" y="0.0" type="priority" />
    <node id="junction_78" x="0.0" y="0.0" type="priority" />
    <node id="junction_79" x="0.0" y="0.0" type="priority" />
    <node id="junction_17" x="0.0" y="0.0" type="priority" />
    <node id="junction_19" x="0.0" y="0.0" type="priority" />
    <node id="junction_18" x="0.0" y="0.0" type="priority" />
    <node id="junction_76" x="0.0" y="0.0" type="priority" />
    <node id="junction_12" x="0.0" y="0.0" type="priority" />
    <node id="junction_14" x="0.0" y="0.0" type="priority" />
    <node id="junction_84" x="0.0" y="0.0" type="priority" />
    <node id="junction_65" x="0.0" y="0.0" type="priority" />
    <node id="junction_85" x="0.0" y="0.0" type="priority" />
    <node id="junction_55" x="0.0" y="0.0" type="priority" />
    <node id="junction_86" x="0.0" y="0.0" type="priority" />
    <node id="junction_81" x="0.0" y="0.0" type="priority" />
    <node id="junction_21" x="0.0" y="0.0" type="priority" />
    <node id="junction_82" x="0.0" y="0.0" type="priority" />
    <node id="junction_22" x="0.0" y="0.0" type="priority" />
    <node id="junction_80" x="0.0" y="0.0" type="priority" />
    <node id="junction_20" x="0.0" y="0.0" type="priority" />
    <node id="junction_4" x="0.0" y="0.0" type="priority" />
    <node id="junction_23" x="0.0" y="0.0" type="priority" />
    <node id="junction_83" x="0.0" y="0.0" type="priority" />
    <node id="junction_66" x="0.0" y="0.0" type="priority" />
    <node id="junction_24" x="0.0" y="0.0" type="priority" />
    <node id="junction_88" x="0.0" y="0.0" type="priority" />
    <node id="junction_26" x="0.0" y="0.0" type="priority" />
    <node id="junction_27" x="0.0" y="0.0" type="priority" />
    <node id="junction_28" x="0.0" y="0.0" type="priority" />
    <node id="junction_91" x="0.0" y="0.0" type="priority" />
    <node id="junction_29" x="0.0" y="0.0" type="priority" />
    <node id="junction_92" x="0.0" y="0.0" type="priority" />
    <node id="junction_30" x="0.0" y="0.0" type="priority" />
    <node id="junction_31" x="0.0" y="0.0" type="priority" />
    <node id="junction_32" x="0.0" y="0.0" type="priority" />
    <node id="junction_96" x="0.0" y="0.0" type="priority" />
    <node id="junction_33" x="0.0" y="0.0" type="priority" />
    <node id="junction_98" x="0.0" y="0.0" type="priority" />
    <node id="junction_99" x="0.0" y="0.0" type="priority" />
    <node id="junction_100" x="0.0" y="0.0" type="priority" />
    <node id="junction_37" x="0.0" y="0.0" type="priority" />
    <node id="junction_36" x="0.0" y="0.0" type="priority" />
    <node id="junction_35" x="0.0" y="0.0" type="priority" />
    <node id="junction_97" x="0.0" y="0.0" type="priority" />
    <node id="junction_87" x="0.0" y="0.0" type="priority" />
    <node id="junction_89" x="0.0" y="0.0" type="priority" />
    <node id="junction_90" x="0.0" y="0.0" type="priority" />
    <node id="junction_93" x="0.0" y="0.0" type="priority" />
    <node id="junction_94" x="0.0" y="0.0" type="priority" />
    <node id="junction_95" x="0.0" y="0.0" type="priority" />
    <node id="junction_34" x="0.0" y="0.0" type="priority" />
    <node id="junction_38" x="0.0" y="0.0" type="priority" />
    <node id="junction_39" x="0.0" y="0.0" type="priority" />
    <node id="junction_40" x="0.0" y="0.0" type="priority" />
    <node id="junction_102" x="0.0" y="0.0" type="priority" />
    <node id="junction_103" x="0.0" y="0.0" type="priority" />
    <node id="junction_106" x="0.0" y="0.0" type="priority" />
    <node id="junction_104" x="0.0" y="0.0" type="priority" />
    <node id="junction_41" x="0.0" y="0.0" type="priority" />
    <node id="junction_43" x="0.0" y="0.0" type="priority" />
    <node id="junction_44" x="0.0" y="0.0" type="priority" />
    <node id="junction_45" x="0.0" y="0.0" type="priority" />
    <node id="junction_108" x="0.0" y="0.0" type="priority" />
    <node id="junction_68" x="0.0" y="0.0" type="priority" />
    <node id="junction_47" x="0.0" y="0.0" type="priority" />
    <node id="junction_49" x="0.0" y="0.0" type="priority" />
    <node id="junction_111" x="0.0" y="0.0" type="priority" />
    <node id="junction_112" x="0.0" y="0.0" type="priority" />
    <node id="junction_50" x="0.0" y="0.0" type="priority" />
    <node id="junction_113" x="0.0" y="0.0" type="priority" />
    <node id="junction_52" x="0.0" y="0.0" type="priority" />
    <node id="junction_51" x="0.0" y="0.0" type="priority" />
    <node id="junction_53" x="0.0" y="0.0" type="priority" />
    <node id="junction_116" x="0.0" y="0.0" type="priority" />
    <node id="junction_115" x="0.0" y="0.0" type="priority" />
    <node id="junction_54" x="0.0" y="0.0" type="priority" />
    <node id="junction_48" x="0.0" y="0.0" type="priority" />
    <node id="junction_117" x="0.0" y="0.0" type="priority" />
    <node id="junction_101" x="0.0" y="0.0" type="priority" />
    <node id="junction_107" x="0.0" y="0.0" type="priority" />
    <node id="junction_109" x="0.0" y="0.0" type="priority" />
    <node id="junction_110" x="0.0" y="0.0" type="priority" />
    <node id="junction_114" x="0.0" y="0.0" type="priority" />
    <node id="junction_13" x="0.0" y="0.0" type="priority" />
    <node id="junction_7" x="0.0" y="0.0" type="priority" />
    <node id="junction_15" x="0.0" y="0.0" type="priority" />
    <node id="junction_119" x="0.0" y="0.0" type="priority" />
    <node id="junction_120" x="0.0" y="0.0" type="priority" />
    <node id="junction_56" x="0.0" y="0.0" type="priority" />
    <node id="junction_118" x="0.0" y="0.0" type="priority" />
    <node id="junction_121" x="0.0" y="0.0" type="priority" />
    <node id="junction_61" x="0.0" y="0.0" type="priority" />
    <node id="junction_122" x="0.0" y="0.0" type="priority" />
    <node id="junction_8" x="0.0" y="0.0" type="priority" />
    <node id="junction_62" x="0.0" y="0.0" type="priority" />
    <node id="junction_71" x="0.0" y="0.0" type="priority" />
    <node id="junction_57" x="0.0" y="0.0" type="priority" />
    <node id="junction_5" x="0.0" y="0.0" type="priority" />
    <node id="junction_123" x="0.0" y="0.0" type="priority" />
    <node id="junction_25" x="0.0" y="0.0" type="priority" />
    <node id="junction_124" x="0.0" y="0.0" type="priority" />
    <node id="junction_58" x="0.0" y="0.0" type="priority" />
    <node id="junction_59" x="0.0" y="0.0" type="priority" />
    <node id="junction_125" x="0.0" y="0.0" type="priority" />
    <node id="junction_126" x="0.0" y="0.0" type="priority" />
    <node id="junction_60" x="0.0" y="0.0" type="priority" />
    <node id="junction_72" x="0.0" y="0.0" type="priority" />
    <node id="junction_127" x="0.0" y="0.0" type="priority" />
    <node id="junction_42" x="598455.0654167953" y="3273926.80976668" type="priority" />
    <node id="junction_46" x="595811.6798645933" y="3271981.719017733" type="priority" />
    <node id="junction_105" x="597257.6092131388" y="3272972.550365607" type="priority" />
</nodes>