<?xml version='1.0' encoding='utf-8'?>
<connections>
    <connection from="413.0" to="408.0" fromLane="1" toLane="2" />
    <connection from="413.0" to="408.0" fromLane="0" toLane="1" />
    <connection from="419.0" to="421.0" fromLane="1" toLane="1" />
    <connection from="419.0" to="421.0" fromLane="2" toLane="2" />
    <connection from="408.0" to="425.0" fromLane="1" toLane="0" />
    <connection from="408.0" to="425.0" fromLane="2" toLane="1" />
    <connection from="408.0" to="429.0" fromLane="1" toLane="0" />
</connections>