<?xml version='1.0' encoding='utf-8'?>
<edges>
    <edge id="408.0" from="junction_32" to="junction_96" numLanes="3" speed="13.89" type="town" shape="635525.91,3280976.08 635518.32,3280974.54 635518.32,3280974.54 635506.82,3280972.24 635506.82,3280972.24 635492.60,3280969.39 635492.60,3280969.39 635481.52,3280967.17 635481.52,3280967.17 635470.05,3280964.90 635470.05,3280964.90 635461.30,3280963.14 635461.30,3280963.14 635451.29,3280961.13 635451.29,3280961.13 635437.42,3280958.33 635437.42,3280958.33 635424.28,3280955.74 635424.28,3280955.74 635405.62,3280952.01 635405.62,3280952.01 635384.10,3280947.71 635384.10,3280947.71 635368.38,3280944.60 635368.38,3280944.60 635351.72,3280941.29 635351.72,3280941.29 635335.87,3280938.15 635335.87,3280938.15 635325.94,3280936.18 635325.94,3280936.18 635314.44,3280933.88 635314.44,3280933.88 635302.65,3280931.53 635302.65,3280931.53 635289.86,3280928.97 635289.86,3280928.97 635276.03,3280926.23 635276.03,3280926.23 635262.15,3280923.46 635262.15,3280923.46 635249.37,3280920.89 635249.37,3280920.89 635238.01,3280918.60 635238.01,3280918.60 635229.34,3280916.89 635229.34,3280916.89 635222.44,3280915.52 635222.44,3280915.52 635211.82,3280913.42 635211.82,3280913.42 635200.71,3280911.21 635200.71,3280911.21 635188.80,3280908.87 635188.80,3280908.87 635177.11,3280906.55 635177.11,3280906.55 635163.10,3280903.78 635163.10,3280903.78 635154.31,3280902.04 635154.31,3280902.04 635147.19,3280900.62 635147.19,3280900.62 635135.18,3280898.23 635135.18,3280898.23 635122.73,3280895.73 635122.73,3280895.73 635111.43,3280893.47 635111.43,3280893.47 635100.27,3280891.27 635100.27,3280891.27 635090.22,3280889.24 635090.22,3280889.24 635080.59,3280887.35 635080.59,3280887.35 635071.85,3280885.63 635071.85,3280885.63 635062.37,3280883.75 635062.37,3280883.75 635053.74,3280882.02 635053.74,3280882.02 635042.24,3280879.78 635042.24,3280879.78 635028.23,3280877.01 635028.23,3280877.01 635016.16,3280874.62 635016.16,3280874.62 635007.59,3280872.93 635007.59,3280872.93 634994.75,3280870.40 634994.75,3280870.40 634984.13,3280868.30 634984.13,3280868.30 634972.30,3280865.95 634972.30,3280865.95 634960.34,3280863.59 634960.34,3280863.59 634952.38,3280861.99 634952.38,3280861.99 634945.72,3280860.64 634945.72,3280860.64 634933.44,3280858.19 634933.44,3280858.19 634921.04,3280855.76 634921.04,3280855.76 634910.15,3280853.54 634910.15,3280853.54 634897.72,3280851.08 634897.72,3280851.08 634883.98,3280848.33 634883.98,3280848.33 634870.21,3280845.60 634870.21,3280845.60 634856.27,3280842.89 634856.27,3280842.89 634845.12,3280840.67 634845.12,3280840.67 634832.44,3280838.13 634832.44,3280838.13 634820.01,3280835.66 634820.01,3280835.66 634807.48,3280833.16 634807.48,3280833.16 634789.48,3280829.53 634789.48,3280829.53 634776.35,3280826.92 634776.35,3280826.92 634763.28,3280824.29 634763.28,3280824.29 634749.43,3280821.50 634749.43,3280821.50 634737.48,3280819.18 634737.48,3280819.18 634722.18,3280816.15 634722.18,3280816.15 634708.17,3280813.40 634708.17,3280813.40 634698.22,3280811.44 634698.22,3280811.44 634687.46,3280809.31 634687.46,3280809.31 634676.39,3280807.11 634676.39,3280807.11 634663.62,3280804.56 634663.62,3280804.56 634650.10,3280801.85 634650.10,3280801.85 634639.00,3280799.68 634639.00,3280799.68 634626.36,3280797.14 634626.36,3280797.14 634610.91,3280794.04 634610.91,3280794.04 634594.79,3280790.80 634594.79,3280790.80 634577.68,3280787.39 634577.68,3280787.39 634559.27,3280783.75 634559.27,3280783.75 634545.23,3280780.98 634545.23,3280780.98 634525.05,3280776.99 634525.05,3280776.99 634513.22,3280774.61 634513.22,3280774.61 634500.68,3280772.09 634500.68,3280772.09 634492.28,3280770.40 634492.28,3280770.40 634482.02,3280768.35 634482.02,3280768.35 634467.21,3280765.36 634467.21,3280765.36 634459.22,3280763.79 634459.22,3280763.79 634446.32,3280761.21 634446.32,3280761.21 634431.62,3280758.28 634431.62,3280758.28 634421.60,3280756.24 634421.60,3280756.24 634404.99,3280752.97 634404.99,3280752.97 634392.66,3280750.49 634392.66,3280750.49 634384.22,3280748.81 634384.22,3280748.81 634380.42,3280748.04 634380.42,3280748.04 634373.23,3280746.56 634373.23,3280746.56 634368.24,3280745.60 634368.24,3280745.60 634359.58,3280743.83 634359.58,3280743.83 634344.24,3280740.80 634344.24,3280740.80 634329.58,3280737.84 634329.58,3280737.84 634318.47,3280735.60 634318.47,3280735.60 634306.06,3280733.09 634306.06,3280733.09 634292.71,3280730.44 634292.71,3280730.44 634282.84,3280728.47 634282.84,3280728.47 634272.54,3280726.40 634272.54,3280726.40 634262.83,3280724.44 634262.83,3280724.44 634254.84,3280722.86 634254.84,3280722.86 634243.58,3280720.60 634243.58,3280720.60 634233.96,3280718.68 634233.96,3280718.68 634222.51,3280716.37 634222.51,3280716.37 634216.65,3280715.18 634216.65,3280715.18 634210.62,3280713.95 634210.62,3280713.95 634200.73,3280711.98 634200.73,3280711.98 634192.12,3280710.22 634192.12,3280710.22 634181.59,3280708.11 634181.59,3280708.11 634169.68,3280705.73 634169.68,3280705.73 634159.52,3280703.70 634159.52,3280703.70 634153.85,3280702.59 634153.85,3280702.59 634146.34,3280701.09 634146.34,3280701.09 634140.79,3280699.97 634140.79,3280699.97 634131.46,3280698.11 634131.46,3280698.11 634123.02,3280696.44 634123.02,3280696.44 634112.77,3280694.38 634112.77,3280694.38 634101.89,3280692.19 634101.89,3280692.19 634094.98,3280690.81 634094.98,3280690.81 634087.29,3280689.27 634087.29,3280689.27 634079.31,3280687.64 634079.31,3280687.64 634070.58,3280685.91 634070.58,3280685.91 634060.47,3280683.91 634060.47,3280683.91 634052.93,3280682.40 634052.93,3280682.40 634044.84,3280680.78 634044.84,3280680.78 634037.54,3280679.33 634037.54,3280679.33 634030.87,3280678.02 634030.87,3280678.02 634022.38,3280676.35 634022.38,3280676.35 634015.06,3280674.88 634015.06,3280674.88 634003.92,3280672.68 634003.92,3280672.68 633992.60,3280670.41 633992.60,3280670.41 633981.95,3280668.35 633981.95,3280668.35 633973.68,3280666.74 633973.68,3280666.74 633964.70,3280665.00 633964.70,3280665.00 633953.30,3280662.78 633953.30,3280662.78 633941.81,3280660.51 633941.81,3280660.51 633932.55,3280658.77 633932.55,3280658.77 633919.12,3280656.19 633919.12,3280656.19 633906.83,3280653.90 633906.83,3280653.90 633896.10,3280651.95 633896.10,3280651.95 633885.31,3280650.05 633885.31,3280650.05 633877.33,3280648.69 633877.33,3280648.69 633865.65,3280646.73 633865.65,3280646.73 633857.78,3280645.47 633857.78,3280645.47 633847.03,3280643.83 633847.03,3280643.83 633839.02,3280642.69 633839.02,3280642.69 633829.77,3280641.39 633829.77,3280641.39 633823.48,3280640.54 633823.48,3280640.54 633814.90,3280639.46 633814.90,3280639.46 633802.07,3280637.85 633802.07,3280637.85 633793.59,3280636.84 633793.59,3280636.84 633781.83,3280635.48 633781.83,3280635.48 633770.66,3280634.26 633770.66,3280634.26 633759.95,3280633.23 633759.95,3280633.23 633750.92,3280632.39 633750.92,3280632.39 633739.38,3280631.43 633739.38,3280631.43 633728.84,3280630.60 633728.84,3280630.60 633719.91,3280629.94 633719.91,3280629.94 633710.23,3280629.32 633710.23,3280629.32 633697.15,3280628.50 633697.15,3280628.50 633688.04,3280628.01 633688.04,3280628.01 633677.22,3280627.44 633677.22,3280627.44 633671.21,3280627.19 633671.21,3280627.19 633663.02,3280626.81 633663.02,3280626.81 633654.50,3280626.53 633654.50,3280626.53 633641.48,3280626.10 633641.48,3280626.10 633629.70,3280625.80 633629.70,3280625.80 633614.14,3280625.52 633614.14,3280625.52 633594.84,3280625.40 633594.84,3280625.40 633580.50,3280625.43 633580.50,3280625.43 633570.72,3280625.54 633570.72,3280625.54 633562.45,3280625.72 633562.45,3280625.72 633550.12,3280625.98 633550.12,3280625.98 633538.22,3280626.33 633538.22,3280626.33 633525.02,3280626.82 633525.02,3280626.82 633513.55,3280627.29 633513.55,3280627.29 633499.56,3280627.93 633499.56,3280627.93 633488.64,3280628.54 633488.64,3280628.54 633474.82,3280629.44 633474.82,3280629.44 633462.89,3280630.26 633462.89,3280630.26 633450.45,3280631.19 633450.45,3280631.19 633438.43,3280632.09 633438.43,3280632.09 633428.81,3280632.84 633428.81,3280632.84 633415.89,3280633.83 633415.89,3280633.83 633401.06,3280634.90 633401.06,3280634.90 633392.29,3280635.53 633392.29,3280635.53 633378.98,3280636.51 633378.98,3280636.51 633365.64,3280637.48 633365.64,3280637.48 633353.74,3280638.33 633353.74,3280638.33 633339.40,3280639.34 633339.40,3280639.34 633328.96,3280640.06 633328.96,3280640.06 633318.89,3280640.75 633318.89,3280640.75 633309.47,3280641.41 633309.47,3280641.41 633299.38,3280642.11 633299.38,3280642.11 633290.27,3280642.77 633290.27,3280642.77 633279.48,3280643.52 633279.48,3280643.52 633271.84,3280644.07 633271.84,3280644.07 633263.87,3280644.62 633263.87,3280644.62 633258.20,3280645.04 633258.20,3280645.04 633252.58,3280645.46 633252.58,3280645.46 633247.03,3280645.86 633247.03,3280645.86 633240.74,3280646.32 633240.74,3280646.32 633234.72,3280646.78 633234.72,3280646.78 633228.15,3280647.27 633228.15,3280647.27 633219.02,3280647.92 633219.02,3280647.92 633210.61,3280648.54 633210.61,3280648.54 633203.18,3280649.03 633203.18,3280649.03 633193.44,3280649.70 633193.44,3280649.70 633181.06,3280650.60 633181.06,3280650.60 633167.04,3280651.59 633167.04,3280651.59 633156.39,3280652.35 633156.39,3280652.35 633147.98,3280652.95 633147.98,3280652.95 633138.54,3280653.60 633138.54,3280653.60 633132.57,3280654.00 633132.57,3280654.00 633127.40,3280654.37 633127.40,3280654.37 633112.78,3280655.39 633112.78,3280655.39 633106.39,3280655.82 633106.39,3280655.82 633100.59,3280656.24 633100.59,3280656.24 633094.35,3280656.67 633094.35,3280656.67 633088.15,3280657.13 633088.15,3280657.13 633079.64,3280657.74 633079.64,3280657.74 633072.57,3280658.25 633072.57,3280658.25 633065.51,3280658.74 633065.51,3280658.74 633059.87,3280659.14 633059.87,3280659.14 633055.73,3280659.45 633055.73,3280659.45 633052.07,3280659.70 633052.07,3280659.70 633043.10,3280660.37 633043.10,3280660.37 633030.73,3280661.22 633030.73,3280661.22 633016.58,3280662.26 633016.58,3280662.26 633005.08,3280663.08 633005.08,3280663.08 632990.99,3280664.12 632990.99,3280664.12 632975.47,3280665.27 632975.47,3280665.27 632962.25,3280666.25 632962.25,3280666.25 632948.36,3280667.27 632948.36,3280667.27 632939.30,3280667.88 632939.30,3280667.88 632929.94,3280668.53 632929.94,3280668.53 632920.20,3280669.21 632920.20,3280669.21 632911.24,3280669.85 632911.24,3280669.85 632897.23,3280670.83 632897.23,3280670.83 632887.23,3280671.54 632887.23,3280671.54 632875.94,3280672.35 632875.94,3280672.35 632865.89,3280673.04 632865.89,3280673.04 632853.98,3280673.86 632853.98,3280673.86 632843.14,3280674.60 632843.14,3280674.60 632833.21,3280675.31 632833.21,3280675.31 632816.69,3280676.49 632816.69,3280676.49 632807.61,3280677.16 632807.61,3280677.16 632795.86,3280678.00 632795.86,3280678.00 632787.92,3280678.58 632787.92,3280678.58 632780.53,3280679.11 632780.53,3280679.11 632773.39,3280679.60 632773.39,3280679.60 632766.40,3280680.10 632766.40,3280680.10 632755.26,3280680.88 632755.26,3280680.88 632747.99,3280681.40 632747.99,3280681.40 632739.94,3280681.98 632739.94,3280681.98 632731.21,3280682.61 632731.21,3280682.61 632720.05,3280683.38 632720.05,3280683.38 632710.63,3280684.07 632710.63,3280684.07 632699.25,3280684.88 632699.25,3280684.88 632691.07,3280685.48 632691.07,3280685.48 632681.38,3280686.19 632681.38,3280686.19 632670.38,3280686.98 632670.38,3280686.98 632659.59,3280687.78 632659.59,3280687.78 632649.78,3280688.50 632649.78,3280688.50 632641.48,3280689.12 632641.48,3280689.12 632634.56,3280689.62 632634.56,3280689.62 632624.50,3280690.36 632624.50,3280690.36 632616.33,3280690.91 632616.33,3280690.91 632606.19,3280691.67 632606.19,3280691.67 632596.35,3280692.32 632596.35,3280692.32 632584.32,3280693.20 632584.32,3280693.20 632571.03,3280694.12 632571.03,3280694.12 632558.43,3280695.01 632558.43,3280695.01 632549.01,3280695.70 632549.01,3280695.70 632540.48,3280696.31 632540.48,3280696.31 632529.48,3280697.10 632529.48,3280697.10 632519.61,3280697.80 632519.61,3280697.80 632508.15,3280698.61 632508.15,3280698.61 632495.34,3280699.42 632495.34,3280699.42 632488.41,3280699.92 632488.41,3280699.92 632479.10,3280700.54 632479.10,3280700.54 632469.60,3280701.17 632469.60,3280701.17 632457.04,3280702.04 632457.04,3280702.04 632447.85,3280702.69 632447.85,3280702.69 632438.64,3280703.34 632438.64,3280703.34 632426.22,3280704.19 632426.22,3280704.19 632415.50,3280704.97 632415.50,3280704.97 632405.32,3280705.70 632405.32,3280705.70 632397.81,3280706.25 632397.81,3280706.25 632385.71,3280707.10 632385.71,3280707.10 632374.94,3280707.89 632374.94,3280707.89 632366.13,3280708.53 632366.13,3280708.53 632354.25,3280709.40 632354.25,3280709.40 632342.50,3280710.18 632342.50,3280710.18 632332.50,3280710.91 632332.50,3280710.91 632322.61,3280711.60 632322.61,3280711.60 632309.03,3280712.60 632309.03,3280712.60 632298.48,3280713.35 632298.48,3280713.35 632287.46,3280714.16 632287.46,3280714.16 632277.77,3280714.86 632277.77,3280714.86 632265.51,3280715.79 632265.51,3280715.79 632256.33,3280716.48 632256.33,3280716.48 632246.56,3280717.21 632246.56,3280717.21 632237.19,3280717.90 632237.19,3280717.90 632228.18,3280718.59 632228.18,3280718.59 632217.33,3280719.38 632217.33,3280719.38 632206.58,3280720.18 632206.58,3280720.18 632193.16,3280721.15 632193.16,3280721.15 632183.72,3280721.83 632183.72,3280721.83 632171.01,3280722.71 632171.01,3280722.71 632159.67,3280723.53 632159.67,3280723.53 632151.28,3280724.15 632151.28,3280724.15 632140.18,3280724.93 632140.18,3280724.93 632131.50,3280725.55 632131.50,3280725.55 632122.14,3280726.28 632122.14,3280726.28 632109.26,3280727.19 632109.26,3280727.19 632097.85,3280728.02 632097.85,3280728.02 632086.61,3280728.83 632086.61,3280728.83 632074.06,3280729.71 632074.06,3280729.71 632064.31,3280730.43 632064.31,3280730.43 632053.98,3280731.15 632053.98,3280731.15 632043.62,3280731.89 632043.62,3280731.89 632033.76,3280732.60 632033.76,3280732.60 632026.28,3280733.11 632026.28,3280733.11 632016.70,3280733.78 632016.70,3280733.78 632009.49,3280734.31 632009.49,3280734.31 632001.41,3280734.85 632001.41,3280734.85 631993.95,3280735.39 631993.95,3280735.39 631985.83,3280735.93 631985.83,3280735.93 631978.21,3280736.49 631978.21,3280736.49 631969.13,3280737.14 631969.13,3280737.14 631960.60,3280737.76 631960.60,3280737.76 631951.43,3280738.45 631951.43,3280738.45 631940.90,3280739.23 631940.90,3280739.23 631933.18,3280739.80 631933.18,3280739.80 631925.14,3280740.34 631925.14,3280740.34 631917.12,3280740.96 631917.12,3280740.96 631907.37,3280741.62 631907.37,3280741.62 631898.06,3280742.29 631898.06,3280742.29 631888.26,3280742.97 631888.26,3280742.97 631878.57,3280743.64 631878.57,3280743.64 631869.58,3280744.29 631869.58,3280744.29 631861.00,3280744.91 631861.00,3280744.91 631851.36,3280745.58 631851.36,3280745.58 631843.20,3280746.17 631843.20,3280746.17 631833.15,3280746.87 631833.15,3280746.87 631824.00,3280747.52 631824.00,3280747.52 631814.27,3280748.21 631814.27,3280748.21 631802.83,3280749.02 631802.83,3280749.02 631788.78,3280750.02 631788.78,3280750.02 631774.88,3280751.02 631774.88,3280751.02 631763.97,3280751.82 631763.97,3280751.82 631751.67,3280752.70 631751.67,3280752.70 631738.85,3280753.66 631738.85,3280753.66 631727.21,3280754.42 631727.21,3280754.42 631714.77,3280755.32 631714.77,3280755.32 631703.52,3280756.10 631703.52,3280756.10 631693.61,3280756.82 631693.61,3280756.82 631682.12,3280757.63 631682.12,3280757.63 631672.66,3280758.28 631672.66,3280758.28 631661.78,3280759.06 631661.78,3280759.06 631651.37,3280759.79 631651.37,3280759.79 631640.55,3280760.55 631640.55,3280760.55 631629.58,3280761.30 631629.58,3280761.30 631619.79,3280762.03 631619.79,3280762.03 631609.88,3280762.75 631609.88,3280762.75 631598.86,3280763.56 631598.86,3280763.56 631588.98,3280764.26 631588.98,3280764.26 631580.42,3280764.89 631580.42,3280764.89 631569.87,3280765.66 631569.87,3280765.66 631558.16,3280766.48 631558.16,3280766.48 631548.30,3280767.17 631548.30,3280767.17 631536.98,3280767.99 631536.98,3280767.99 631529.09,3280768.53 631529.09,3280768.53 631520.09,3280769.19 631520.09,3280769.19 631507.69,3280770.07 631507.69,3280770.07 631496.40,3280770.85 631496.40,3280770.85 631487.54,3280771.53 631487.54,3280771.53 631477.32,3280772.24 631477.32,3280772.24 631467.01,3280772.99 631467.01,3280772.99 631457.06,3280773.73 631457.06,3280773.73 631446.38,3280774.48 631446.38,3280774.48 631433.36,3280775.43 631433.36,3280775.43 631422.13,3280776.22 631422.13,3280776.22 631412.37,3280776.92 631412.37,3280776.92 631401.86,3280777.67 631401.86,3280777.67 631389.87,3280778.56 631389.87,3280778.56 631378.71,3280779.37 631378.71,3280779.37 631364.93,3280780.35 631364.93,3280780.35 631351.41,3280781.32 631351.41,3280781.32 631338.66,3280782.23 631338.66,3280782.23 631326.79,3280783.11 631326.79,3280783.11 631313.75,3280784.04 631313.75,3280784.04 631303.20,3280784.83 631303.20,3280784.83 631293.00,3280785.57 631293.00,3280785.57 631282.81,3280786.32 631282.81,3280786.32 631270.46,3280787.20 631270.46,3280787.20 631259.23,3280788.01 631259.23,3280788.01 631246.06,3280788.98 631246.06,3280788.98 631233.66,3280789.83 631233.66,3280789.83 631220.42,3280790.77 631220.42,3280790.77 631207.27,3280791.69 631207.27,3280791.69 631194.01,3280792.60 631194.01,3280792.60 631184.55,3280793.28 631184.55,3280793.28 631172.37,3280794.13 631172.37,3280794.13 631160.05,3280795.01 631160.05,3280795.01 631148.73,3280795.80 631148.73,3280795.80 631137.50,3280796.58 631137.50,3280796.58 631125.97,3280797.41 631125.97,3280797.41 631114.27,3280798.26 631114.27,3280798.26 631102.01,3280799.14 631102.01,3280799.14 631088.98,3280800.06 631088.98,3280800.06 631078.97,3280800.76 631078.97,3280800.76 631068.53,3280801.49 631068.53,3280801.49 631055.43,3280802.47 631055.43,3280802.47 631044.14,3280803.27 631044.14,3280803.27 631031.57,3280804.11 631031.57,3280804.11 631020.29,3280804.88 631020.29,3280804.88 631008.97,3280805.70 631008.97,3280805.70 630993.47,3280806.75 630993.47,3280806.75 630979.22,3280807.75 630979.22,3280807.75 630963.00,3280808.93 630963.00,3280808.93 630948.61,3280809.94 630948.61,3280809.94 630932.18,3280811.10 630932.18,3280811.10 630916.65,3280812.27 630916.65,3280812.27 630903.89,3280813.18 630903.89,3280813.18 630889.66,3280814.23 630889.66,3280814.23 630875.50,3280815.19 630875.50,3280815.19 630864.05,3280816.04 630864.05,3280816.04 630853.25,3280816.82 630853.25,3280816.82 630843.89,3280817.45 630843.89,3280817.45 630833.41,3280818.26 630833.41,3280818.26 630823.31,3280818.95 630823.31,3280818.95 630814.32,3280819.60 630814.32,3280819.60 630802.53,3280820.41 630802.53,3280820.41 630787.20,3280821.53 630787.20,3280821.53 630770.25,3280822.72 630770.25,3280822.72 630753.82,3280823.88 630753.82,3280823.88 630737.82,3280825.00 630737.82,3280825.00 630721.94,3280826.16 630721.94,3280826.16 630701.52,3280827.58 630701.52,3280827.58 630685.36,3280828.74 630685.36,3280828.74 630669.36,3280829.87 630669.36,3280829.87 630653.11,3280831.03 630653.11,3280831.03 630640.77,3280831.90 630640.77,3280831.90 630624.86,3280833.03 630624.86,3280833.03 630611.13,3280833.99 630611.13,3280833.99 630593.88,3280835.23 630593.88,3280835.23 630573.76,3280836.68 630573.76,3280836.68 630557.32,3280837.88 630557.32,3280837.88 630540.44,3280839.09 630540.44,3280839.09 630525.50,3280840.17 630525.50,3280840.17 630506.88,3280841.50 630506.88,3280841.50 630485.71,3280843.02 630485.71,3280843.02 630465.39,3280844.46 630465.39,3280844.46 630443.12,3280846.00 630443.12,3280846.00 630426.59,3280847.17 630426.59,3280847.17 630411.40,3280848.32 630411.40,3280848.32 630396.34,3280849.37 630396.34,3280849.37 630383.57,3280850.27 630383.57,3280850.27 630366.66,3280851.46 630366.66,3280851.46 630353.10,3280852.44 630353.10,3280852.44 630337.34,3280853.57 630337.34,3280853.57 630324.73,3280854.49 630324.73,3280854.49 630309.61,3280855.56 630309.61,3280855.56 630295.34,3280856.60 630295.34,3280856.60 630280.84,3280857.64 630280.84,3280857.64 630263.23,3280858.89 630263.23,3280858.89 630256.99,3280859.32">
        <lane index="0" width="3.66" type="shoulder" disallow="all" />
        <lane index="1" width="3.66" />
        <lane index="2" width="3.66" />
    </edge>
    <edge id="410.0" from="node_410_start" to="node_410_end" numLanes="3" speed="13.89" type="town" shape="636658.50,3281201.98 636655.87,3281201.45 636655.87,3281201.45 636644.77,3281199.25 636644.77,3281199.25 636634.00,3281197.06 636634.00,3281197.06 636621.26,3281194.51 636621.26,3281194.51 636607.24,3281191.74 636607.24,3281191.74 636593.17,3281188.92 636593.17,3281188.92 636580.55,3281186.38 636580.55,3281186.38 636568.72,3281183.99 636568.72,3281183.99 636561.41,3281182.51 636561.41,3281182.51 636547.74,3281179.77 636547.74,3281179.77 636537.30,3281177.65 636537.30,3281177.65 636529.94,3281176.20 636529.94,3281176.20 636520.00,3281174.21 636520.00,3281174.21 636511.80,3281172.62 636511.80,3281172.62 636504.94,3281171.22 636504.94,3281171.22 636491.05,3281168.53 636491.05,3281168.53 636480.34,3281166.41 636480.34,3281166.41 636471.39,3281164.64 636471.39,3281164.64 636461.27,3281162.63 636461.27,3281162.63 636449.28,3281160.24 636449.28,3281160.24 636437.89,3281158.05 636437.89,3281158.05 636429.63,3281156.39 636429.63,3281156.39 636416.93,3281153.83 636416.93,3281153.83 636407.36,3281151.94 636407.36,3281151.94 636390.91,3281148.63 636390.91,3281148.63 636364.54,3281143.33 636364.54,3281143.33 636348.61,3281140.07 636348.61,3281140.07 636339.64,3281138.28 636339.64,3281138.28 636329.01,3281136.14 636329.01,3281136.14 636319.77,3281134.32 636319.77,3281134.32 636309.72,3281132.30 636309.72,3281132.30 636301.14,3281130.59 636301.14,3281130.59 636291.94,3281128.76 636291.94,3281128.76 636279.04,3281126.21 636279.04,3281126.21 636268.46,3281124.12 636268.46,3281124.12 636265.23,3281123.45 636265.23,3281123.45 636255.84,3281121.60 636255.84,3281121.60 636241.25,3281118.67 636241.25,3281118.67 636228.59,3281116.17 636228.59,3281116.17 636217.20,3281113.87 636217.20,3281113.87 636208.57,3281112.13 636208.57,3281112.13 636194.59,3281109.36 636194.59,3281109.36 636180.48,3281106.54 636180.48,3281106.54 636163.85,3281103.25 636163.85,3281103.25 636147.77,3281100.01 636147.77,3281100.01 636140.05,3281098.49 636140.05,3281098.49 636128.30,3281096.14 636128.30,3281096.14 636114.56,3281093.43 636114.56,3281093.43 636106.30,3281091.78 636106.30,3281091.78 636091.69,3281088.85 636091.69,3281088.85 636081.03,3281086.73 636081.03,3281086.73 636073.07,3281085.12 636073.07,3281085.12 636065.97,3281083.73 636065.97,3281083.73 636057.20,3281081.97 636057.20,3281081.97 636040.27,3281078.57 636040.27,3281078.57 636032.94,3281077.11 636032.94,3281077.11 636020.91,3281074.70 636020.91,3281074.70 636009.75,3281072.47 636009.75,3281072.47 635997.80,3281070.07 635997.80,3281070.07 635984.00,3281067.31 635984.00,3281067.31 635971.94,3281064.85 635971.94,3281064.85 635952.93,3281061.07 635952.93,3281061.07 635939.43,3281058.38 635939.43,3281058.38 635926.74,3281055.88 635926.74,3281055.88 635916.23,3281053.75 635916.23,3281053.75 635905.29,3281051.56 635905.29,3281051.56 635898.14,3281050.13 635898.14,3281050.13 635888.79,3281048.30 635888.79,3281048.30 635877.59,3281046.06 635877.59,3281046.06 635865.82,3281043.73 635865.82,3281043.73 635856.65,3281041.91 635856.65,3281041.91 635840.08,3281038.62 635840.08,3281038.62 635828.42,3281036.30 635828.42,3281036.30 635808.41,3281032.30 635808.41,3281032.30 635794.91,3281029.60 635794.91,3281029.60 635776.05,3281025.81 635776.05,3281025.81 635764.55,3281023.52 635764.55,3281023.52 635753.09,3281021.21 635753.09,3281021.21 635741.35,3281018.89 635741.35,3281018.89 635735.35,3281017.72 635735.35,3281017.72 635726.33,3281015.92 635726.33,3281015.92 635716.29,3281013.85 635716.29,3281013.85 635704.76,3281011.60 635704.76,3281011.60 635688.98,3281008.44 635688.98,3281008.44 635676.74,3281006.04 635676.74,3281006.04 635662.78,3281003.26 635662.78,3281003.26 635650.09,3281000.75 635650.09,3281000.75 635639.98,3280998.72">
        <lane index="0" width="3.66" type="shoulder" disallow="all" />
        <lane index="1" width="3.66" />
        <lane index="2" width="3.66" />
    </edge>
    <edge id="412.0" from="node_412_start" to="node_412_end" numLanes="1" speed="13.89" type="town" shape="635964.08,3281119.17 635948.10,3281114.37 635948.10,3281114.37 635930.04,3281108.04 635930.04,3281108.04 635907.54,3281099.73 635907.54,3281099.73 635878.96,3281088.78 635878.96,3281088.78 635852.80,3281078.74 635852.80,3281078.74 635839.01,3281073.55 635839.01,3281073.55 635823.78,3281068.26 635823.78,3281068.26 635803.85,3281061.16 635803.85,3281061.16 635778.55,3281051.89 635778.55,3281051.89 635754.54,3281042.88 635754.54,3281042.88 635728.59,3281033.54 635728.59,3281033.54 635712.78,3281028.34 635712.78,3281028.34 635700.30,3281024.57 635700.30,3281024.57 635683.77,3281020.01 635683.77,3281020.01 635668.66,3281016.26 635668.66,3281016.26 635651.12,3281011.88 635651.12,3281011.88 635638.03,3281008.62">
        <lane index="0" width="3.66" />
    </edge>
    <edge id="413.0" from="node_410_end" to="junction_32" numLanes="2" speed="13.89" type="town" shape="635639.98,3280998.72 635638.30,3280998.38 635638.30,3280998.38 635631.24,3280996.98 635631.24,3280996.98 635624.69,3280995.71 635624.69,3280995.71 635617.78,3280994.33 635617.78,3280994.33 635608.61,3280992.52 635608.61,3280992.52 635599.84,3280990.75">
        <lane index="0" width="3.66" />
        <lane index="1" width="3.66" />
    </edge>
    <edge id="415.0" from="node_412_end" to="junction_32" numLanes="1" speed="13.89" type="town" shape="635638.03,3281008.62 635627.69,3281005.90 635627.69,3281005.90 635613.60,3281002.01 635613.60,3281002.01 635600.77,3280998.50 635600.77,3280998.50 635599.52,3280998.18 635599.52,3280998.18 635598.68,3280997.75">
        <lane index="0" width="3.66" />
    </edge>
    <edge id="418.0" from="node_418_start" to="node_418_end" numLanes="1" speed="13.89" type="town" shape="630155.35,3280876.75 630144.55,3280878.20 630144.55,3280878.20 630132.18,3280879.94 630132.18,3280879.94 630121.15,3280881.44 630121.15,3280881.44 630110.01,3280883.01 630110.01,3280883.01 630098.86,3280884.57 630098.86,3280884.57 630090.06,3280885.82 630090.06,3280885.82 630079.64,3280887.34 630079.64,3280887.34 630072.05,3280888.50 630072.05,3280888.50 630058.32,3280890.54 630058.32,3280890.54 630046.91,3280892.28 630046.91,3280892.28 630034.26,3280894.24 630034.26,3280894.24 630018.62,3280896.61 630018.62,3280896.61 630003.59,3280898.99 630003.59,3280898.99 629997.79,3280900.09 629997.79,3280900.09 629989.21,3280902.00 629989.21,3280902.00 629985.39,3280902.97 629985.39,3280902.97 629980.49,3280904.38 629980.49,3280904.38 629974.42,3280906.30 629974.42,3280906.30 629969.22,3280908.15 629969.22,3280908.15 629963.50,3280910.44 629963.50,3280910.44 629956.76,3280913.52">
        <lane index="0" width="3.66" />
    </edge>
    <edge id="419.0" from="node_419_start" to="junction_33" numLanes="3" speed="13.89" type="town" shape="630154.35,3280866.58 630133.64,3280868.12 630133.64,3280868.12 630114.83,3280869.48 630114.83,3280869.48 630090.84,3280871.14 630090.84,3280871.14 630075.48,3280872.30 630075.48,3280872.30 630056.77,3280873.70 630056.77,3280873.70 630038.85,3280875.01 630038.85,3280875.01 630022.78,3280876.11 630022.78,3280876.11 630008.34,3280877.12 630008.34,3280877.12 629996.06,3280878.07 629996.06,3280878.07 629976.67,3280879.43 629976.67,3280879.43 629957.84,3280880.82 629957.84,3280880.82 629941.16,3280882.04 629941.16,3280882.04 629929.19,3280882.90 629929.19,3280882.90 629916.21,3280883.83 629916.21,3280883.83 629896.62,3280885.26 629896.62,3280885.26 629878.51,3280886.52 629878.51,3280886.52 629862.43,3280887.67 629862.43,3280887.67 629849.67,3280888.57 629849.67,3280888.57 629833.47,3280889.71 629833.47,3280889.71 629820.18,3280890.70 629820.18,3280890.70 629807.80,3280891.62 629807.80,3280891.62 629790.45,3280892.87 629790.45,3280892.87 629773.61,3280894.06 629773.61,3280894.06 629757.62,3280895.18 629757.62,3280895.18 629735.04,3280896.77 629735.04,3280896.77 629720.39,3280897.80 629720.39,3280897.80 629703.00,3280899.06 629703.00,3280899.06 629686.20,3280900.27 629686.20,3280900.27 629678.17,3280900.83 629678.17,3280900.83 629664.07,3280901.80 629664.07,3280901.80 629638.71,3280903.67 629638.71,3280903.67 629621.63,3280904.86 629621.63,3280904.86 629599.65,3280906.37 629599.65,3280906.37 629580.13,3280907.79 629580.13,3280907.79 629560.04,3280909.24 629560.04,3280909.24 629542.44,3280910.54 629542.44,3280910.54 629525.14,3280911.79 629525.14,3280911.79 629511.46,3280912.77 629511.46,3280912.77 629498.45,3280913.72 629498.45,3280913.72 629480.30,3280915.02 629480.30,3280915.02 629465.82,3280916.09 629465.82,3280916.09 629451.53,3280917.09 629451.53,3280917.09 629434.61,3280918.23 629434.61,3280918.23 629417.36,3280919.46 629417.36,3280919.46 629402.20,3280920.51 629402.20,3280920.51 629383.06,3280921.88 629383.06,3280921.88 629359.14,3280923.58 629359.14,3280923.58 629340.84,3280924.88 629340.84,3280924.88 629321.82,3280926.20 629321.82,3280926.20 629306.85,3280927.24 629306.85,3280927.24 629287.92,3280928.53 629287.92,3280928.53 629270.27,3280929.80 629270.27,3280929.80 629248.08,3280931.36 629248.08,3280931.36 629230.94,3280932.61 629230.94,3280932.61 629211.93,3280933.95 629211.93,3280933.95 629198.14,3280934.93">
        <lane index="0" width="3.66" type="shoulder" disallow="all" />
        <lane index="1" width="3.66" />
        <lane index="2" width="3.66" />
    </edge>