<?xml version="1.0" encoding="UTF-8"?>

<!-- generated on 2025-10-19 17:33:41 by Eclipse SUMO netconvert Version 1.23.1
<netconvertConfiguration xmlns:xsi="http://www.w3.org/2001/XMLSchema-instance" xsi:noNamespaceSchemaLocation="http://sumo.dlr.de/xsd/netconvertConfiguration.xsd">

    <input>
        <node-files value="/home/sdai/harry/TeraSim/jupiter/wb/jupiter_wb_tiles/tile_0050/tile_0050.nod.xml"/>
        <edge-files value="/home/sdai/harry/TeraSim/jupiter/wb/jupiter_wb_tiles/tile_0050/tile_0050.edg.xml"/>
        <connection-files value="/home/sdai/harry/TeraSim/jupiter/wb/jupiter_wb_tiles/tile_0050/tile_0050.con.xml"/>
    </input>

    <output>
        <output-file value="/home/sdai/harry/TeraSim/jupiter/wb/jupiter_wb_tiles/tile_0050/tile_0050.net.xml"/>
        <output.street-names value="true"/>
        <output.original-names value="true"/>
    </output>

    <processing>
        <geometry.remove value="false"/>
        <geometry.min-dist value="0.5"/>
        <edges.join value="false"/>
    </processing>

    <junctions>
        <no-internal-links value="false"/>
        <no-turnarounds value="true"/>
        <junctions.join value="true"/>
        <junctions.join-dist value="10"/>
        <junctions.corner-detail value="5"/>
        <junctions.internal-link-detail value="5"/>
        <junctions.limit-turn-speed value="5.5"/>
        <rectangular-lane-cut value="true"/>
        <check-lane-foes.all value="true"/>
    </junctions>

</netconvertConfiguration>
-->

<net version="1.20" junctionCornerDetail="5" junctionLinkDetail="5" rectangularLaneCut="true" limitTurnSpeed="5.50" checkLaneFoesAll="1" xmlns:xsi="http://www.w3.org/2001/XMLSchema-instance" xsi:noNamespaceSchemaLocation="http://sumo.dlr.de/xsd/net_file.xsd">

    <location netOffset="-626647.71,-3280353.72" convBoundary="0.00,0.00,10028.92,851.90" origBoundary="0.00,0.00,636676.63,3281205.62" projParameter="!"/>

    <edge id=":junction_32_0" function="internal">
        <lane id=":junction_32_0_0" index="0" speed="13.89" length="79.63" width="3.66" shape="8954.37,647.03 8877.11,627.74"/>
    </edge>
    <edge id=":junction_32_1" function="internal">
        <lane id=":junction_32_1_0" index="0" speed="13.89" length="80.44" width="3.66" shape="8956.01,643.41 8877.11,627.74"/>
        <lane id=":junction_32_1_1" index="1" speed="13.89" length="80.44" width="3.66" shape="8956.73,639.83 8877.84,624.15"/>
    </edge>
    <edge id=":junction_33_0" function="internal">
        <lane id=":junction_33_0_0" index="0" speed="13.89" length="116.86" width="3.66" shape="2551.41,593.27 2434.67,598.61"/>
    </edge>
    <edge id=":junction_33_1" function="internal">
        <lane id=":junction_33_1_0" index="0" speed="13.89" length="116.69" width="3.66" shape="2550.82,586.69 2434.42,594.96"/>
        <lane id=":junction_33_1_1" index="1" speed="13.89" length="116.69" width="3.66" shape="2550.56,583.04 2434.17,591.31"/>
    </edge>
    <edge id=":junction_96_0" function="internal">
        <lane id=":junction_96_0_0" index="0" speed="13.89" length="64.17" width="3.66" shape="3609.66,511.08 3546.05,519.47"/>
    </edge>
    <edge id=":junction_96_1" function="internal">
        <lane id=":junction_96_1_0" index="0" speed="13.89" length="64.18" width="3.66" shape="3609.66,511.08 3545.64,515.55"/>
        <lane id=":junction_96_1_1" index="1" speed="13.89" length="64.18" width="3.66" shape="3609.41,507.43 3545.39,511.90"/>
    </edge>
    <edge id=":node_410_end_0" function="internal">
        <lane id=":node_410_end_0_0" index="0" speed="13.89" length="3.00" width="3.66" shape="8992.66,650.68 8989.72,650.08"/>
        <lane id=":node_410_end_0_1" index="1" speed="13.89" length="3.00" width="3.66" shape="8993.38,647.09 8990.44,646.50"/>
    </edge>
    <edge id=":node_410_start_0" function="internal">
        <lane id=":node_410_start_0_0" index="0" speed="13.89" length="3.00" width="3.66" shape="10011.18,853.94 10008.24,853.35"/>
        <lane id=":node_410_start_0_1" index="1" speed="13.89" length="3.00" width="3.66" shape="10011.90,850.35 10008.96,849.76"/>
    </edge>
    <edge id=":node_412_end_0" function="internal">
        <lane id=":node_412_end_0_0" index="0" speed="13.89" length="0.29" width="3.66" shape="8990.01,656.71 8989.73,656.64"/>
    </edge>
    <edge id=":node_418_start_0" function="internal">
        <lane id=":node_418_start_0_0" index="0" speed="13.89" length="0.30" width="3.66" shape="3508.04,524.82 3507.74,524.86"/>
    </edge>
    <edge id=":node_419_start_0" function="internal">
        <lane id=":node_419_start_0_0" index="0" speed="13.89" length="3.00" width="3.66" shape="3508.54,518.23 3505.55,518.45"/>
        <lane id=":node_419_start_0_1" index="1" speed="13.89" length="3.00" width="3.66" shape="3508.28,514.58 3505.28,514.80"/>
    </edge>
    <edge id=":node_420_start_0" function="internal">
        <lane id=":node_420_start_0_0" index="0" speed="13.89" length="8.06" width="3.66" shape="2275.89,606.41 2267.84,606.87"/>
    </edge>
    <edge id=":node_420_start_1" function="internal">
        <lane id=":node_420_start_1_0" index="0" speed="13.89" length="8.00" width="3.66" shape="2275.82,606.30 2267.84,606.87"/>
        <lane id=":node_420_start_1_1" index="1" speed="13.89" length="8.00" width="3.66" shape="2275.56,602.65 2267.58,603.22"/>
    </edge>
    <edge id=":node_421_end_0" function="internal">
        <lane id=":node_421_end_0_0" index="0" speed="13.89" length="3.40" width="3.66" shape="2359.67,603.85 2358.68,603.79 2358.02,603.55 2357.35,603.31 2356.36,603.22"/>
    </edge>
    <edge id=":node_421_end_1" function="internal">
        <lane id=":node_421_end_1_0" index="0" speed="13.89" length="3.00" width="3.66" shape="2359.42,600.20 2356.42,600.41"/>
        <lane id=":node_421_end_1_1" index="1" speed="13.89" length="3.00" width="3.66" shape="2359.16,596.55 2356.16,596.76"/>
    </edge>

    <edge id="408.0" from="junction_32" to="junction_96" priority="-1" type="town" shape="8878.20,622.36 8870.61,620.82 8859.11,618.52 8844.89,615.67 8833.81,613.45 8822.34,611.18 8813.59,609.42 8803.58,607.41 8789.71,604.61 8776.57,602.02 8757.91,598.29 8736.39,593.99 8720.67,590.88 8704.01,587.57 8688.16,584.43 8678.23,582.46 8666.73,580.16 8654.94,577.81 8642.15,575.25 8628.32,572.51 8614.44,569.74 8601.66,567.17 8590.30,564.88 8581.63,563.17 8574.73,561.80 8564.11,559.70 8553.00,557.49 8541.09,555.15 8529.40,552.83 8515.39,550.06 8506.60,548.32 8499.48,546.90 8487.47,544.51 8475.02,542.01 8463.72,539.75 8452.56,537.55 8442.51,535.52 8432.88,533.63 8424.14,531.91 8414.66,530.03 8406.03,528.30 8394.53,526.06 8380.52,523.29 8368.45,520.90 8359.88,519.21 8347.04,516.68 8336.42,514.58 8324.59,512.23 8312.63,509.87 8304.67,508.27 8298.01,506.92 8285.73,504.47 8273.33,502.04 8262.44,499.82 8250.01,497.36 8236.27,494.61 8222.50,491.88 8208.56,489.17 8197.41,486.95 8184.73,484.41 8172.30,481.94 8159.77,479.44 8141.77,475.81 8128.64,473.20 8115.57,470.57 8101.72,467.78 8089.77,465.46 8074.47,462.43 8060.46,459.68 8050.51,457.72 8039.75,455.59 8028.68,453.39 8015.91,450.84 8002.39,448.13 7991.29,445.96 7978.65,443.42 7963.20,440.32 7947.08,437.08 7929.97,433.67 7911.56,430.03 7897.52,427.26 7877.34,423.27 7865.51,420.89 7852.97,418.37 7844.57,416.68 7834.31,414.63 7819.50,411.64 7811.51,410.07 7798.61,407.49 7783.91,404.56 7773.89,402.52 7757.28,399.25 7744.95,396.77 7736.51,395.09 7732.71,394.32 7725.52,392.84 7720.53,391.88 7711.87,390.11 7696.53,387.08 7681.87,384.12 7670.76,381.88 7658.35,379.37 7645.00,376.72 7635.13,374.75 7624.83,372.68 7615.12,370.72 7607.13,369.14 7595.87,366.88 7586.25,364.96 7574.80,362.65 7568.94,361.46 7562.91,360.23 7553.02,358.26 7544.41,356.50 7533.88,354.39 7521.97,352.01 7511.81,349.98 7506.14,348.87 7498.63,347.37 7493.08,346.25 7483.75,344.39 7475.31,342.72 7465.06,340.66 7454.18,338.47 7447.27,337.09 7439.58,335.55 7431.60,333.92 7422.87,332.19 7412.76,330.19 7405.22,328.68 7397.13,327.06 7389.83,325.61 7383.16,324.30 7374.67,322.63 7367.35,321.16 7356.21,318.96 7344.89,316.69 7334.24,314.63 7325.97,313.02 7316.99,311.28 7305.59,309.06 7294.10,306.79 7284.84,305.05 7271.41,302.47 7259.12,300.18 7248.39,298.23 7237.60,296.33 7229.62,294.97 7217.94,293.01 7210.07,291.75 7199.32,290.11 7191.31,288.97 7182.06,287.67 7175.77,286.82 7167.19,285.74 7154.36,284.13 7145.88,283.12 7134.12,281.76 7122.95,280.54 7112.24,279.51 7103.21,278.67 7091.67,277.71 7081.13,276.88 7072.20,276.22 7062.52,275.60 7049.44,274.78 7040.33,274.29 7029.51,273.72 7023.50,273.47 7015.31,273.09 7006.79,272.81 6993.77,272.38 6981.99,272.08 6966.43,271.80 6947.13,271.68 6932.79,271.71 6923.01,271.82 6914.74,272.00 6902.41,272.26 6890.51,272.61 6877.31,273.10 6865.84,273.57 6851.85,274.21 6840.93,274.82 6827.11,275.72 6815.18,276.54 6802.74,277.47 6790.72,278.37 6781.10,279.12 6768.18,280.11 6753.35,281.18 6744.58,281.81 6731.27,282.79 6717.93,283.76 6706.03,284.61 6691.69,285.62 6681.25,286.34 6671.18,287.03 6661.76,287.69 6651.67,288.39 6642.56,289.05 6631.77,289.80 6624.13,290.35 6616.16,290.90 6610.49,291.32 6604.87,291.74 6599.32,292.14 6593.03,292.60 6587.01,293.06 6580.44,293.55 6571.31,294.20 6562.90,294.82 6555.47,295.31 6545.73,295.98 6533.35,296.88 6519.33,297.87 6508.68,298.63 6500.27,299.23 6490.83,299.88 6484.86,300.28 6479.69,300.65 6465.07,301.67 6458.68,302.10 6452.88,302.52 6446.64,302.95 6440.44,303.41 6431.93,304.02 6424.86,304.53 6417.80,305.02 6412.16,305.42 6408.02,305.73 6404.36,305.98 6395.39,306.65 6383.02,307.50 6368.87,308.54 6357.37,309.36 6343.28,310.40 6327.76,311.55 6314.54,312.53 6300.65,313.55 6291.59,314.16 6282.23,314.81 6272.49,315.49 6263.53,316.13 6249.52,317.11 6239.52,317.82 6228.23,318.63 6218.18,319.32 6206.27,320.14 6195.43,320.88 6185.50,321.59 6168.98,322.77 6159.90,323.44 6148.15,324.28 6140.21,324.86 6132.82,325.39 6125.68,325.88 6118.69,326.38 6107.55,327.16 6100.28,327.68 6092.23,328.26 6083.50,328.89 6072.34,329.66 6062.92,330.35 6051.54,331.16 6043.36,331.76 6033.67,332.47 6022.67,333.26 6011.88,334.06 6002.07,334.78 5993.77,335.40 5986.85,335.90 5976.79,336.64 5968.62,337.19 5958.48,337.95 5948.64,338.60 5936.61,339.48 5923.32,340.40 5910.72,341.29 5901.30,341.98 5892.77,342.59 5881.77,343.38 5871.90,344.08 5860.44,344.89 5847.63,345.70 5840.70,346.20 5831.39,346.82 5821.89,347.45 5809.33,348.32 5800.14,348.97 5790.93,349.62 5778.51,350.47 5767.79,351.25 5757.61,351.98 5750.10,352.53 5738.00,353.38 5727.23,354.17 5718.42,354.81 5706.54,355.68 5694.79,356.46 5684.79,357.19 5674.90,357.88 5661.32,358.88 5650.77,359.63 5639.75,360.44 5630.06,361.14 5617.80,362.07 5608.62,362.76 5598.85,363.49 5589.48,364.18 5580.47,364.87 5569.62,365.66 5558.87,366.46 5545.45,367.43 5536.01,368.11 5523.30,368.99 5511.96,369.81 5503.57,370.43 5492.47,371.21 5483.79,371.83 5474.43,372.56 5461.55,373.47 5450.14,374.30 5438.90,375.11 5426.35,375.99 5416.60,376.71 5406.27,377.43 5395.91,378.17 5386.05,378.88 5378.57,379.39 5368.99,380.06 5361.78,380.59 5353.70,381.13 5346.24,381.67 5338.12,382.21 5330.50,382.77 5321.42,383.42 5312.89,384.04 5303.72,384.73 5293.19,385.51 5285.47,386.08 5277.43,386.62 5269.41,387.24 5259.66,387.90 5250.35,388.57 5240.55,389.25 5230.86,389.92 5221.87,390.57 5213.29,391.19 5203.65,391.86 5195.49,392.45 5185.44,393.15 5176.29,393.80 5166.56,394.49 5155.12,395.30 5141.07,396.30 5127.17,397.30 5116.26,398.10 5103.96,398.98 5091.14,399.94 5079.50,400.70 5067.06,401.60 5055.81,402.38 5045.90,403.10 5034.41,403.91 5024.95,404.56 5014.07,405.34 5003.66,406.07 4992.84,406.83 4981.87,407.58 4972.08,408.31 4962.17,409.03 4951.15,409.84 4941.27,410.54 4932.71,411.17 4922.16,411.94 4910.45,412.76 4900.59,413.45 4889.27,414.27 4881.38,414.81 4872.38,415.47 4859.98,416.35 4848.69,417.13 4839.83,417.81 4829.61,418.52 4819.30,419.27 4809.35,420.01 4798.67,420.76 4785.65,421.71 4774.42,422.50 4764.66,423.20 4754.15,423.95 4742.16,424.84 4731.00,425.65 4717.22,426.63 4703.70,427.60 4690.95,428.51 4679.08,429.39 4666.04,430.32 4655.49,431.11 4645.29,431.85 4635.10,432.60 4622.75,433.48 4611.52,434.29 4598.35,435.26 4585.95,436.11 4572.71,437.05 4559.56,437.97 4546.30,438.88 4536.84,439.56 4524.66,440.41 4512.34,441.29 4501.02,442.08 4489.79,442.86 4478.26,443.69 4466.56,444.54 4454.30,445.42 4441.27,446.34 4431.26,447.04 4420.82,447.77 4407.72,448.75 4396.43,449.55 4383.86,450.39 4372.58,451.16 4361.26,451.98 4345.76,453.03 4331.51,454.03 4315.29,455.21 4300.90,456.22 4284.47,457.38 4268.94,458.55 4256.18,459.46 4241.95,460.51 4227.79,461.47 4216.34,462.32 4205.54,463.10 4196.18,463.73 4185.70,464.54 4175.60,465.23 4166.61,465.88 4154.82,466.69 4139.49,467.81 4122.54,469.00 4106.11,470.16 4090.11,471.28 4074.23,472.44 4053.81,473.86 4037.65,475.02 4021.65,476.15 4005.40,477.31 3993.06,478.18 3977.15,479.31 3963.42,480.27 3946.17,481.51 3926.05,482.96 3909.61,484.16 3892.73,485.37 3877.79,486.45 3859.17,487.78 3838.00,489.30 3817.68,490.74 3795.41,492.28 3778.88,493.45 3763.69,494.60 3748.63,495.65 3735.86,496.55 3718.95,497.74 3705.39,498.72 3689.63,499.85 3677.02,500.77 3661.90,501.84 3647.63,502.88 3633.13,503.92 3615.52,505.17 3609.28,505.60">
        <lane id="408.0_0" index="0" disallow="all" speed="13.89" length="5309.23" width="3.66" shape="8876.38,631.33 8868.81,629.79 8857.32,627.49 8843.10,624.64 8832.03,622.42 8820.56,620.15 8811.79,618.39 8801.78,616.38 8787.92,613.58 8774.79,610.99 8756.12,607.26 8734.61,602.96 8718.89,599.86 8702.23,596.55 8686.38,593.41 8676.45,591.43 8664.94,589.13 8653.15,586.78 8640.37,584.22 8626.54,581.48 8612.65,578.71 8599.86,576.14 8588.51,573.85 8579.86,572.15 8572.96,570.78 8562.33,568.68 8551.23,566.47 8539.32,564.13 8527.63,561.81 8513.62,559.04 8504.82,557.29 8497.70,555.87 8485.68,553.48 8473.23,550.98 8461.94,548.72 8450.77,546.52 8440.73,544.49 8431.12,542.61 8422.37,540.89 8412.88,539.00 8404.26,537.28 8392.77,535.04 8378.75,532.27 8366.68,529.88 8358.11,528.19 8345.27,525.66 8334.64,523.56 8322.82,521.21 8310.85,518.84 8302.86,517.24 8296.21,515.89 8283.96,513.45 8271.54,511.01 8260.64,508.79 8248.23,506.33 8234.49,503.58 8220.74,500.86 8206.80,498.15 8195.62,495.92 8182.94,493.38 8170.52,490.91 8157.97,488.41 8139.98,484.78 8126.85,482.17 8113.77,479.54 8099.95,476.76 8088.01,474.44 8072.70,471.41 8058.70,468.66 8048.74,466.70 8037.97,464.57 8026.90,462.36 8014.12,459.81 8000.61,457.11 7989.51,454.94 7976.85,452.39 7961.40,449.29 7945.29,446.05 7928.19,442.64 7909.79,439.01 7895.75,436.24 7875.56,432.24 7863.71,429.86 7851.17,427.34 7842.78,425.65 7832.51,423.60 7817.71,420.61 7809.73,419.04 7796.82,416.46 7782.11,413.53 7772.10,411.49 7755.50,408.22 7743.16,405.74 7734.72,404.06 7730.88,403.28 7723.73,401.81 7718.75,400.86 7710.07,399.08 7694.74,396.05 7680.06,393.09 7668.95,390.85 7656.56,388.34 7643.22,385.69 7633.34,383.72 7623.03,381.65 7613.33,379.69 7605.34,378.11 7594.08,375.85 7584.45,373.93 7572.99,371.62 7567.12,370.43 7561.11,369.20 7551.22,367.23 7542.60,365.47 7532.09,363.36 7520.18,360.98 7510.03,358.96 7504.37,357.85 7496.83,356.34 7491.29,355.22 7481.97,353.36 7473.52,351.69 7463.26,349.63 7452.38,347.44 7445.48,346.06 7437.77,344.52 7429.80,342.89 7421.10,341.17 7410.98,339.16 7403.43,337.65 7395.34,336.03 7388.06,334.59 7381.40,333.28 7372.89,331.60 7365.57,330.13 7354.43,327.93 7343.12,325.67 7332.50,323.61 7324.23,322.00 7315.25,320.26 7303.83,318.04 7292.37,315.77 7283.13,314.04 7269.71,311.46 7257.47,309.18 7246.78,307.24 7236.04,305.35 7228.10,303.99 7216.46,302.04 7208.67,300.79 7197.98,299.16 7190.03,298.03 7180.81,296.73 7174.60,295.89 7166.05,294.82 7153.25,293.21 7144.82,292.21 7133.10,290.85 7122.02,289.64 7111.38,288.62 7102.41,287.78 7090.93,286.83 7080.44,286.00 7071.58,285.35 7061.95,284.73 7048.90,283.91 7039.85,283.43 7029.07,282.86 7023.10,282.61 7014.95,282.23 7006.49,281.96 6993.50,281.53 6981.79,281.23 6966.32,280.95 6947.11,280.83 6932.85,280.86 6923.16,280.97 6914.94,281.15 6902.64,281.41 6890.82,281.76 6877.67,282.24 6866.24,282.71 6852.32,283.35 6841.49,283.95 6827.72,284.85 6815.84,285.67 6803.43,286.59 6791.42,287.49 6781.81,288.24 6768.86,289.23 6754.01,290.31 6745.25,290.94 6731.94,291.92 6718.59,292.89 6706.68,293.74 6692.33,294.75 6681.88,295.47 6671.82,296.16 6662.40,296.82 6652.32,297.52 6643.21,298.18 6632.42,298.93 6624.78,299.48 6616.81,300.03 6611.17,300.44 6605.54,300.87 6599.99,301.27 6593.72,301.72 6587.70,302.18 6581.11,302.68 6571.97,303.33 6563.54,303.95 6556.09,304.44 6546.38,305.11 6534.01,306.01 6519.98,307.00 6509.34,307.76 6500.91,308.36 6491.46,309.01 6485.49,309.41 6480.33,309.78 6465.70,310.80 6459.32,311.23 6453.53,311.65 6447.30,312.08 6441.11,312.54 6432.59,313.15 6425.51,313.66 6418.44,314.15 6412.83,314.55 6408.68,314.86 6405.03,315.11 6396.04,315.78 6383.67,316.63 6369.54,317.67 6358.04,318.49 6343.96,319.53 6328.44,320.67 6315.22,321.66 6301.30,322.68 6292.22,323.29 6282.87,323.94 6273.14,324.62 6264.18,325.26 6250.17,326.24 6240.18,326.95 6228.88,327.76 6218.81,328.45 6206.90,329.27 6196.07,330.01 6186.16,330.72 6169.64,331.90 6160.57,332.57 6148.81,333.41 6140.87,333.99 6133.46,334.52 6126.32,335.01 6119.34,335.51 6108.20,336.29 6100.94,336.81 6092.89,337.39 6084.15,338.02 6072.99,338.79 6063.58,339.48 6052.20,340.29 6044.03,340.89 6034.34,341.60 6023.34,342.39 6012.56,343.19 6002.75,343.91 5994.45,344.53 5987.52,345.03 5977.44,345.77 5969.28,346.32 5959.13,347.08 5949.28,347.73 5937.26,348.61 5923.96,349.53 5911.38,350.42 5901.96,351.11 5893.43,351.72 5882.43,352.51 5872.55,353.21 5861.05,354.02 5848.24,354.83 5841.33,355.33 5832.00,355.95 5822.51,356.58 5809.97,357.45 5800.79,358.10 5791.57,358.75 5779.16,359.60 5768.45,360.38 5758.27,361.11 5750.76,361.66 5738.66,362.51 5727.90,363.30 5719.09,363.94 5707.18,364.81 5695.43,365.59 5685.45,366.32 5675.56,367.01 5661.99,368.01 5651.43,368.76 5640.42,369.57 5630.74,370.26 5618.49,371.19 5609.31,371.88 5599.53,372.61 5590.17,373.30 5581.15,373.99 5570.30,374.79 5559.54,375.59 5546.11,376.56 5536.66,377.24 5523.95,378.12 5512.63,378.94 5504.23,379.56 5493.12,380.34 5484.48,380.95 5475.11,381.69 5462.21,382.60 5450.80,383.43 5439.55,384.24 5427.01,385.12 5417.26,385.84 5406.92,386.56 5396.57,387.30 5386.70,388.01 5379.21,388.52 5369.65,389.19 5362.42,389.72 5354.34,390.26 5346.88,390.80 5338.76,391.34 5331.17,391.90 5322.08,392.55 5313.57,393.17 5304.40,393.85 5293.87,394.64 5286.12,395.21 5278.09,395.75 5270.07,396.37 5260.30,397.03 5251.00,397.70 5241.19,398.38 5231.51,399.05 5222.53,399.70 5213.94,400.32 5204.30,400.99 5196.14,401.58 5186.09,402.28 5176.94,402.93 5167.21,403.62 5155.77,404.43 5141.73,405.43 5127.84,406.43 5116.92,407.23 5104.63,408.11 5091.78,409.07 5080.13,409.83 5067.71,410.73 5056.46,411.51 5046.56,412.23 5035.05,413.04 5025.60,413.69 5014.72,414.47 5004.30,415.20 4993.48,415.96 4982.52,416.71 4972.76,417.44 4962.84,418.16 4951.81,418.97 4941.93,419.67 4933.38,420.30 4922.82,421.07 4911.09,421.89 4901.24,422.58 4889.92,423.40 4882.03,423.94 4873.04,424.60 4860.62,425.48 4849.36,426.26 4840.50,426.94 4830.26,427.65 4819.97,428.40 4810.01,429.14 4799.33,429.89 4786.31,430.84 4775.07,431.63 4765.32,432.33 4754.82,433.08 4742.83,433.97 4731.66,434.78 4717.88,435.76 4704.36,436.73 4691.62,437.64 4679.75,438.52 4666.71,439.45 4656.17,440.24 4645.96,440.98 4635.76,441.73 4623.41,442.61 4612.19,443.42 4599.00,444.39 4586.59,445.24 4573.36,446.18 4560.20,447.10 4546.94,448.01 4537.49,448.69 4525.31,449.54 4512.99,450.42 4501.66,451.21 4490.44,451.99 4478.92,452.82 4467.22,453.67 4454.95,454.55 4441.92,455.47 4431.90,456.17 4421.49,456.90 4408.39,457.88 4397.06,458.68 4384.48,459.52 4373.23,460.29 4361.90,461.11 4346.39,462.16 4332.17,463.16 4315.95,464.34 4301.55,465.35 4285.14,466.51 4269.61,467.68 4256.85,468.59 4242.60,469.64 4228.44,470.60 4217.01,471.45 4206.18,472.23 4196.84,472.86 4186.37,473.67 4176.24,474.36 4167.26,475.01 4155.47,475.82 4140.15,476.94 4123.19,478.13 4106.76,479.29 4090.77,480.41 4074.88,481.57 4054.46,482.99 4038.30,484.15 4022.30,485.28 4006.05,486.44 3993.71,487.31 3977.80,488.44 3964.07,489.40 3946.83,490.64 3926.72,492.09 3910.27,493.29 3893.39,494.50 3878.45,495.58 3859.83,496.91 3838.65,498.43 3818.32,499.87 3796.05,501.41 3779.55,502.58 3764.36,503.73 3749.27,504.78 3736.51,505.68 3719.60,506.87 3706.05,507.85 3690.29,508.98 3677.68,509.90 3662.56,510.97 3648.29,512.01 3633.78,513.05 3616.17,514.30 3609.91,514.73" type="shoulder"/>
        <lane id="408.0_1" index="1" speed="13.89" length="5309.23" width="3.66" shape="8877.11,627.74 8869.53,626.20 8858.04,623.90 8843.82,621.05 8832.74,618.83 8821.27,616.56 8812.51,614.80 8802.50,612.79 8788.64,609.99 8775.50,607.40 8756.84,603.67 8735.32,599.37 8719.61,596.27 8702.95,592.96 8687.10,589.82 8677.16,587.84 8665.66,585.54 8653.87,583.19 8641.08,580.63 8627.25,577.89 8613.37,575.12 8600.58,572.55 8589.23,570.26 8580.57,568.56 8573.67,567.19 8563.05,565.09 8551.94,562.88 8540.03,560.54 8528.34,558.22 8514.33,555.45 8505.53,553.70 8498.41,552.28 8486.40,549.89 8473.94,547.39 8462.65,545.13 8451.49,542.93 8441.44,540.90 8431.83,539.02 8423.08,537.30 8413.59,535.41 8404.97,533.69 8393.48,531.45 8379.46,528.68 8367.39,526.29 8358.82,524.60 8345.98,522.07 8335.36,519.97 8323.53,517.62 8311.56,515.25 8303.59,513.65 8296.93,512.30 8284.67,509.86 8272.26,507.42 8261.36,505.20 8248.94,502.74 8235.20,499.99 8221.45,497.27 8207.51,494.56 8196.34,492.33 8183.66,489.79 8171.23,487.32 8158.69,484.82 8140.69,481.19 8127.57,478.58 8114.49,475.95 8100.66,473.17 8088.72,470.85 8073.41,467.82 8059.40,465.07 8049.45,463.11 8038.69,460.98 8027.61,458.77 8014.84,456.22 8001.33,453.52 7990.23,451.35 7977.57,448.80 7962.12,445.70 7946.01,442.46 7928.90,439.05 7910.50,435.42 7896.46,432.65 7876.27,428.65 7864.43,426.27 7851.89,423.75 7843.49,422.06 7833.23,420.01 7818.43,417.02 7810.44,415.45 7797.54,412.87 7782.83,409.94 7772.82,407.90 7756.21,404.63 7743.88,402.15 7735.44,400.47 7731.61,399.70 7724.45,398.22 7719.47,397.27 7710.79,395.49 7695.46,392.46 7680.79,389.50 7669.68,387.26 7657.28,384.75 7643.93,382.10 7634.06,380.13 7623.75,378.06 7614.05,376.10 7606.06,374.52 7594.80,372.26 7585.17,370.34 7573.72,368.03 7567.85,366.84 7561.83,365.61 7551.94,363.64 7543.33,361.88 7532.81,359.77 7520.90,357.39 7510.75,355.37 7505.08,354.26 7497.55,352.75 7492.01,351.63 7482.68,349.77 7474.24,348.10 7463.98,346.04 7453.10,343.85 7446.20,342.47 7438.50,340.93 7430.52,339.30 7421.81,337.58 7411.69,335.57 7404.15,334.06 7396.06,332.44 7388.77,331.00 7382.10,329.69 7373.60,328.01 7366.28,326.54 7355.14,324.34 7343.83,322.08 7333.20,320.02 7324.93,318.41 7315.95,316.67 7304.54,314.45 7293.06,312.18 7283.82,310.44 7270.39,307.86 7258.13,305.58 7247.43,303.63 7236.66,301.74 7228.71,300.38 7217.05,298.43 7209.23,297.17 7198.52,295.54 7190.55,294.41 7181.31,293.11 7175.07,292.26 7166.51,291.19 7153.69,289.58 7145.25,288.57 7133.51,287.22 7122.39,286.00 7111.73,284.98 7102.73,284.14 7091.23,283.18 7080.71,282.35 7071.83,281.70 7062.18,281.08 7049.12,280.26 7040.04,279.77 7029.25,279.20 7023.26,278.95 7015.10,278.58 7006.61,278.30 6993.61,277.87 6981.87,277.57 6966.37,277.29 6947.12,277.17 6932.83,277.20 6923.10,277.31 6914.86,277.49 6902.55,277.75 6890.70,278.10 6877.53,278.59 6866.08,279.05 6852.13,279.69 6841.27,280.30 6827.48,281.20 6815.58,282.02 6803.15,282.94 6791.14,283.84 6781.53,284.59 6768.59,285.58 6753.75,286.66 6744.98,287.29 6731.67,288.27 6718.33,289.24 6706.42,290.09 6692.08,291.10 6681.63,291.82 6671.56,292.51 6662.15,293.17 6652.06,293.87 6642.95,294.53 6632.16,295.28 6624.52,295.83 6616.55,296.38 6610.90,296.79 6605.28,297.22 6599.72,297.62 6593.44,298.07 6587.43,298.53 6580.84,299.03 6571.71,299.68 6563.29,300.30 6555.84,300.79 6546.12,301.46 6533.75,302.36 6519.72,303.35 6509.07,304.11 6500.66,304.71 6491.21,305.36 6485.24,305.76 6480.08,306.13 6465.45,307.15 6459.07,307.58 6453.27,308.00 6447.04,308.43 6440.84,308.89 6432.33,309.50 6425.25,310.01 6418.19,310.50 6412.56,310.90 6408.42,311.21 6404.76,311.46 6395.78,312.13 6383.41,312.98 6369.27,314.02 6357.77,314.84 6343.69,315.88 6328.17,317.02 6314.95,318.01 6301.04,319.03 6291.97,319.64 6282.62,320.29 6272.88,320.97 6263.92,321.61 6249.91,322.59 6239.91,323.30 6228.62,324.11 6218.56,324.80 6206.65,325.62 6195.82,326.36 6185.90,327.07 6169.38,328.25 6160.30,328.92 6148.55,329.76 6140.61,330.34 6133.21,330.87 6126.07,331.36 6119.08,331.86 6107.94,332.64 6100.68,333.16 6092.63,333.74 6083.89,334.37 6072.73,335.14 6063.32,335.83 6051.94,336.64 6043.77,337.24 6034.07,337.95 6023.07,338.74 6012.29,339.54 6002.48,340.26 5994.18,340.88 5987.25,341.38 5977.18,342.12 5969.02,342.67 5958.87,343.43 5949.03,344.08 5937.00,344.96 5923.71,345.88 5911.12,346.77 5901.70,347.46 5893.17,348.07 5882.16,348.86 5872.29,349.56 5860.81,350.37 5848.00,351.18 5841.08,351.68 5831.76,352.30 5822.27,352.93 5809.72,353.80 5800.53,354.45 5791.31,355.10 5778.90,355.95 5768.19,356.73 5758.01,357.46 5750.49,358.01 5738.40,358.86 5727.63,359.65 5718.82,360.29 5706.93,361.16 5695.17,361.94 5685.18,362.67 5675.30,363.36 5661.72,364.36 5651.17,365.11 5640.15,365.92 5630.47,366.61 5618.22,367.54 5609.03,368.23 5599.26,368.96 5589.89,369.65 5580.88,370.34 5570.03,371.14 5559.27,371.94 5545.85,372.91 5536.40,373.59 5523.69,374.47 5512.36,375.29 5503.97,375.91 5492.86,376.69 5484.20,377.30 5474.84,378.04 5461.95,378.95 5450.54,379.78 5439.29,380.59 5426.75,381.47 5417.00,382.19 5406.66,382.91 5396.31,383.65 5386.44,384.36 5378.95,384.87 5369.39,385.54 5362.17,386.07 5354.08,386.61 5346.62,387.15 5338.51,387.69 5330.90,388.25 5321.82,388.90 5313.30,389.52 5304.13,390.20 5293.60,390.99 5285.86,391.56 5277.83,392.10 5269.81,392.72 5260.05,393.38 5250.74,394.05 5240.93,394.73 5231.25,395.40 5222.27,396.05 5213.68,396.67 5204.04,397.34 5195.88,397.93 5185.83,398.63 5176.68,399.28 5166.95,399.97 5155.51,400.78 5141.47,401.78 5127.57,402.78 5116.66,403.58 5104.36,404.46 5091.53,405.42 5079.88,406.18 5067.45,407.08 5056.20,407.86 5046.30,408.58 5034.80,409.39 5025.34,410.04 5014.46,410.82 5004.05,411.55 4993.22,412.31 4982.26,413.06 4972.49,413.79 4962.57,414.51 4951.55,415.32 4941.67,416.02 4933.11,416.65 4922.55,417.42 4910.84,418.24 4900.98,418.93 4889.66,419.75 4881.77,420.29 4872.78,420.95 4860.37,421.83 4849.09,422.61 4840.23,423.29 4830.00,424.00 4819.71,424.75 4809.75,425.49 4799.07,426.24 4786.05,427.19 4774.81,427.98 4765.06,428.68 4754.55,429.43 4742.57,430.32 4731.40,431.13 4717.61,432.11 4704.10,433.08 4691.35,433.99 4679.48,434.87 4666.44,435.80 4655.90,436.59 4645.69,437.33 4635.50,438.08 4623.15,438.96 4611.92,439.77 4598.74,440.74 4586.34,441.59 4573.10,442.53 4559.94,443.45 4546.69,444.36 4537.23,445.04 4525.05,445.89 4512.73,446.77 4501.41,447.56 4490.18,448.34 4478.66,449.17 4466.96,450.02 4454.69,450.90 4441.66,451.82 4431.65,452.52 4421.22,453.25 4408.12,454.23 4396.81,455.03 4384.23,455.87 4372.97,456.64 4361.65,457.46 4346.14,458.51 4331.91,459.51 4315.69,460.69 4301.29,461.70 4284.87,462.86 4269.35,464.03 4256.58,464.94 4242.34,465.99 4228.18,466.95 4216.74,467.80 4205.93,468.58 4196.58,469.21 4186.10,470.02 4175.99,470.71 4167.00,471.36 4155.21,472.17 4139.89,473.29 4122.93,474.48 4106.50,475.64 4090.51,476.76 4074.62,477.92 4054.20,479.34 4038.04,480.50 4022.04,481.63 4005.79,482.79 3993.45,483.66 3977.54,484.79 3963.81,485.75 3946.57,486.99 3926.45,488.44 3910.01,489.64 3893.13,490.85 3878.19,491.93 3859.57,493.26 3838.39,494.78 3818.07,496.22 3795.80,497.76 3779.28,498.93 3764.09,500.08 3749.02,501.13 3736.25,502.03 3719.34,503.22 3705.79,504.20 3690.03,505.33 3677.42,506.25 3662.30,507.32 3648.03,508.36 3633.52,509.40 3615.91,510.65 3609.66,511.08"/>