<?xml version='1.0' encoding='utf-8'?>
<connections>
    <connection from="827.0" to="196.0" fromLane="1" toLane="2" />
    <connection from="827.0" to="196.0" fromLane="0" toLane="1" />
    <connection from="206.0" to="211.0" fromLane="1" toLane="2" />
    <connection from="206.0" to="211.0" fromLane="0" toLane="1" />
    <connection from="196.0" to="223.0" fromLane="2" toLane="2" />
    <connection from="196.0" to="223.0" fromLane="1" toLane="1" />
</connections>