<?xml version="1.0" encoding="UTF-8"?>

<!-- generated on 2025-10-19 17:35:16 by Eclipse SUMO netconvert Version 1.23.1
<netconvertConfiguration xmlns:xsi="http://www.w3.org/2001/XMLSchema-instance" xsi:noNamespaceSchemaLocation="http://sumo.dlr.de/xsd/netconvertConfiguration.xsd">

    <input>
        <node-files value="/home/sdai/harry/TeraSim/jupiter/eb/jupiter_eb_tiles/tile_0022/tile_0022.nod.xml"/>
        <edge-files value="/home/sdai/harry/TeraSim/jupiter/eb/jupiter_eb_tiles/tile_0022/tile_0022.edg.xml"/>
        <connection-files value="/home/sdai/harry/TeraSim/jupiter/eb/jupiter_eb_tiles/tile_0022/tile_0022.con.xml"/>
    </input>

    <output>
        <output-file value="/home/sdai/harry/TeraSim/jupiter/eb/jupiter_eb_tiles/tile_0022/tile_0022.net.xml"/>
        <output.street-names value="true"/>
        <output.original-names value="true"/>
    </output>

    <processing>
        <geometry.remove value="false"/>
        <geometry.min-dist value="0.5"/>
        <edges.join value="false"/>
    </processing>

    <junctions>
        <no-internal-links value="false"/>
        <no-turnarounds value="true"/>
        <junctions.join value="true"/>
        <junctions.join-dist value="10"/>
        <junctions.corner-detail value="5"/>
        <junctions.internal-link-detail value="5"/>
        <junctions.limit-turn-speed value="5.5"/>
        <rectangular-lane-cut value="true"/>
        <check-lane-foes.all value="true"/>
    </junctions>

</netconvertConfiguration>
-->

<net version="1.20" junctionCornerDetail="5" junctionLinkDetail="5" rectangularLaneCut="true" limitTurnSpeed="5.50" checkLaneFoesAll="1" xmlns:xsi="http://www.w3.org/2001/XMLSchema-instance" xsi:noNamespaceSchemaLocation="http://sumo.dlr.de/xsd/net_file.xsd">

    <location netOffset="-598670.96,-3274083.16" convBoundary="0.00,0.00,5564.25,787.93" origBoundary="0.00,0.00,604235.21,3274871.09" projParameter="!"/>

    <edge id=":junction_14_0" function="internal">
        <lane id=":junction_14_0_0" index="0" speed="13.89" length="100.53" width="3.66" shape="1663.08,726.94 1680.86,727.85 1711.38,730.60 1742.84,733.56 1763.45,735.11"/>
        <lane id=":junction_14_0_1" index="1" speed="13.89" length="100.53" width="3.66" shape="1663.35,730.59 1681.07,731.50 1711.47,734.25 1742.80,737.22 1763.35,738.77"/>
    </edge>
    <edge id=":junction_16_0" function="internal">
        <lane id=":junction_16_0_0" index="0" speed="13.89" length="124.02" width="3.66" shape="1170.86,709.41 1189.96,712.64 1228.40,718.56 1268.74,724.42 1293.55,727.49"/>
    </edge>
    <edge id=":junction_16_1" function="internal">
        <lane id=":junction_16_1_0" index="0" speed="13.89" length="124.02" width="3.66" shape="1169.75,721.42 1293.30,731.14"/>
        <lane id=":junction_16_1_1" index="1" speed="13.89" length="124.02" width="3.66" shape="1169.33,725.05 1293.06,734.79"/>
    </edge>
    <edge id=":junction_17_0" function="internal">
        <lane id=":junction_17_0_0" index="0" speed="13.89" length="100.31" width="3.66" shape="2792.08,738.42 2811.94,739.45 2842.12,742.01 2872.31,744.69 2892.16,746.06"/>
        <lane id=":junction_17_0_1" index="1" speed="13.89" length="100.31" width="3.66" shape="2792.15,742.08 2811.98,743.11 2842.12,745.67 2872.25,748.35 2892.09,749.72"/>
    </edge>
    <edge id=":node_206_start_0" function="internal">
        <lane id=":node_206_start_0_0" index="0" speed="13.89" length="0.24" width="3.66" shape="418.74,334.91 418.88,335.03"/>
        <lane id=":node_206_start_0_1" index="1" speed="13.89" length="0.24" width="3.66" shape="416.38,337.71 416.61,337.90"/>
    </edge>
    <edge id=":node_211_end_0" function="internal">
        <lane id=":node_211_end_0_0" index="0" speed="13.89" length="3.16" width="3.66" shape="1388.61,733.08 1391.76,733.23"/>
    </edge>
    <edge id=":node_211_end_1" function="internal">
        <lane id=":node_211_end_1_0" index="0" speed="13.89" length="3.01" width="3.66" shape="1388.47,736.74 1391.47,736.84"/>
        <lane id=":node_211_end_1_1" index="1" speed="13.89" length="3.01" width="3.66" shape="1388.34,740.40 1391.35,740.50"/>
    </edge>
    <edge id=":node_216_end_0" function="internal">
        <lane id=":node_216_end_0_0" index="0" speed="13.89" length="0.30" width="3.66" shape="3873.21,763.95 3873.51,763.95"/>
        <lane id=":node_216_end_0_1" index="1" speed="13.89" length="0.30" width="3.66" shape="3873.16,767.61 3873.46,767.61"/>
    </edge>
    <edge id=":node_216_start_0" function="internal">
        <lane id=":node_216_start_0_0" index="0" speed="13.89" length="3.00" width="3.66" shape="3682.60,760.30 3685.59,760.36"/>
        <lane id=":node_216_start_0_1" index="1" speed="13.89" length="3.00" width="3.66" shape="3682.53,763.96 3685.53,764.02"/>
    </edge>
    <edge id=":node_218_end_0" function="internal">
        <lane id=":node_218_end_0_0" index="0" speed="13.89" length="0.30" width="3.66" shape="4314.93,768.92 4315.23,768.92"/>
        <lane id=":node_218_end_0_1" index="1" speed="13.89" length="0.30" width="3.66" shape="4314.90,772.58 4315.20,772.58"/>
    </edge>
    <edge id=":node_218_start_0" function="internal">
        <lane id=":node_218_start_0_0" index="0" speed="13.89" length="3.00" width="3.66" shape="4133.81,766.98 4136.81,767.01"/>
        <lane id=":node_218_start_0_1" index="1" speed="13.89" length="3.00" width="3.66" shape="4133.77,770.64 4136.77,770.67"/>
    </edge>
    <edge id=":node_219_start_0" function="internal">
        <lane id=":node_219_start_0_0" index="0" speed="13.89" length="3.00" width="3.66" shape="5265.09,778.99 5268.09,779.02"/>
        <lane id=":node_219_start_0_1" index="1" speed="13.89" length="3.00" width="3.66" shape="5265.05,782.65 5268.05,782.68"/>
    </edge>
    <edge id=":node_220_end_0" function="internal">
        <lane id=":node_220_end_0_0" index="0" speed="13.89" length="3.00" width="3.66" shape="3951.85,764.93 3954.85,764.97"/>
        <lane id=":node_220_end_0_1" index="1" speed="13.89" length="3.00" width="3.66" shape="3951.80,768.59 3954.81,768.63"/>
    </edge>
    <edge id=":node_223_end_0" function="internal">
        <lane id=":node_223_end_0_0" index="0" speed="13.89" length="3.42" width="3.66" shape="3410.80,753.25 3411.80,753.36 3412.46,753.60 3413.12,753.85 3414.12,753.99"/>
    </edge>
    <edge id=":node_223_end_1" function="internal">
        <lane id=":node_223_end_1_0" index="0" speed="13.89" length="3.00" width="3.66" shape="3410.77,756.91 3413.77,756.93"/>
        <lane id=":node_223_end_1_1" index="1" speed="13.89" length="3.00" width="3.66" shape="3410.74,760.57 3413.74,760.59"/>
    </edge>
    <edge id=":node_225_end_0" function="internal">
        <lane id=":node_225_end_0_0" index="0" speed="13.89" length="0.30" width="3.66" shape="5030.43,776.39 5030.73,776.39"/>
        <lane id=":node_225_end_0_1" index="1" speed="13.89" length="0.30" width="3.66" shape="5030.40,780.05 5030.70,780.05"/>
    </edge>
    <edge id=":node_227_end_0" function="internal">
        <lane id=":node_227_end_0_0" index="0" speed="13.89" length="8.07" width="3.66" shape="3505.15,758.23 3513.22,758.07"/>
    </edge>
    <edge id=":node_227_end_1" function="internal">
        <lane id=":node_227_end_1_0" index="0" speed="13.89" length="8.00" width="3.66" shape="3505.22,757.99 3513.22,758.07"/>
        <lane id=":node_227_end_1_1" index="1" speed="13.89" length="8.00" width="3.66" shape="3505.19,761.65 3513.18,761.73"/>
    </edge>
    <edge id=":node_820_start_0" function="internal">
        <lane id=":node_820_start_0_0" index="0" speed="13.89" length="0.29" width="3.66" shape="80.28,60.26 80.50,60.44"/>
        <lane id=":node_820_start_0_1" index="1" speed="13.89" length="0.29" width="3.66" shape="77.95,63.08 78.19,63.28"/>
    </edge>
    <edge id=":node_827_start_0" function="internal">
        <lane id=":node_827_start_0_0" index="0" speed="13.89" length="8.09" width="3.66" shape="1468.34,738.26 1476.44,738.13"/>
    </edge>
    <edge id=":node_827_start_1" function="internal">
        <lane id=":node_827_start_1_0" index="0" speed="13.89" length="8.01" width="3.66" shape="1468.42,738.09 1476.44,738.13"/>
        <lane id=":node_827_start_1_1" index="1" speed="13.89" length="8.01" width="3.66" shape="1468.39,741.75 1476.40,741.79"/>
    </edge>

    <edge id="196.0" from="junction_14" to="junction_17" priority="-1" type="town" shape="1763.30,740.60 2014.68,747.37 2016.96,747.38 2036.08,747.67 2055.13,747.89 2073.84,747.95 2087.10,748.17 2106.16,748.40 2125.67,748.68 2144.92,748.86 2176.72,749.16 2195.80,749.27 2208.49,749.46 2227.57,749.64 2246.47,749.82 2265.70,750.12 2284.20,750.28 2297.51,750.56 2316.86,750.64 2329.38,750.84 2354.89,751.08 2373.90,751.31 2386.60,751.51 2397.97,751.66 2792.19,743.91">
        <lane id="196.0_0" index="0" speed="13.89" length="1028.83" width="3.66" shape="1763.55,731.45 2014.93,738.22 2017.05,738.23 2036.20,738.52 2055.20,738.74 2073.93,738.80 2087.23,739.02 2106.28,739.25 2125.78,739.53 2145.01,739.71 2176.80,740.01 2195.90,740.12 2208.60,740.31 2227.66,740.49 2246.59,740.67 2265.81,740.97 2284.34,741.13 2297.63,741.41 2316.95,741.49 2329.50,741.69 2354.99,741.93 2374.03,742.16 2386.74,742.36 2397.94,742.51 2792.01,734.76"/>
        <lane id="196.0_1" index="1" speed="13.89" length="1028.83" width="3.66" shape="1763.45,735.11 2014.83,741.88 2017.02,741.89 2036.16,742.18 2055.17,742.40 2073.90,742.46 2087.18,742.68 2106.24,742.91 2125.74,743.19 2144.97,743.37 2176.77,743.67 2195.86,743.78 2208.56,743.97 2227.62,744.15 2246.54,744.33 2265.77,744.63 2284.28,744.79 2297.58,745.07 2316.92,745.15 2329.45,745.35 2354.95,745.59 2373.98,745.82 2386.68,746.02 2397.95,746.17 2792.08,738.42"/>
        <lane id="196.0_2" index="2" speed="13.89" length="1028.83" width="3.66" shape="1763.35,738.77 2014.73,745.54 2016.98,745.55 2036.11,745.84 2055.15,746.06 2073.86,746.12 2087.13,746.34 2106.19,746.57 2125.69,746.85 2144.94,747.03 2176.74,747.33 2195.82,747.44 2208.51,747.63 2227.59,747.81 2246.50,747.99 2265.72,748.29 2284.23,748.45 2297.54,748.73 2316.88,748.81 2329.41,749.01 2354.91,749.25 2373.93,749.48 2386.63,749.68 2397.97,749.83 2792.15,742.08"/>
    </edge>
    <edge id="206.0" from="node_206_start" to="junction_16" priority="-1" type="town" shape="415.33,339.22 427.67,348.97 442.80,361.38 457.76,373.41 473.58,386.25 489.49,398.70 499.91,407.12 515.40,419.46 530.65,431.88 545.79,444.32 562.10,457.34 574.95,467.52 586.85,476.75 605.16,490.46 620.77,501.79 636.56,512.92 654.07,524.92 671.33,536.22 686.27,545.68 696.24,551.79 708.42,559.34 723.14,568.29 734.05,574.71 746.30,581.81 761.14,590.11 775.37,597.74 788.76,604.83 801.08,611.25 812.79,617.11 832.10,626.54 850.84,635.13 870.26,644.10 892.14,653.54 906.65,659.58 926.18,667.17 939.58,672.32 957.38,678.77 969.74,683.07 988.35,689.05 1007.52,694.78 1022.96,698.88 1044.13,704.13 1056.41,707.10 1072.43,710.59 1091.28,714.40 1104.57,716.87 1115.06,718.80 1125.67,720.57 1148.43,724.02 1160.25,725.85 1169.12,726.87">
        <lane id="206.0_0" index="0" speed="13.89" length="858.85" width="3.66" shape="418.88,335.03 431.12,344.69 446.26,357.12 461.21,369.14 477.00,381.96 492.91,394.40 503.35,402.84 518.85,415.18 534.13,427.63 549.25,440.05 565.52,453.04 578.34,463.20 590.18,472.38 608.42,486.04 623.97,497.32 639.70,508.41 657.13,520.36 674.30,531.60 689.18,541.02 699.12,547.12 711.29,554.66 725.96,563.58 736.82,569.97 749.02,577.04 763.78,585.29 777.95,592.90 791.32,599.97 803.58,606.36 815.23,612.19 834.45,621.58 853.14,630.14 872.50,639.09 894.29,648.49 908.70,654.49 928.16,662.05 941.50,667.18 959.22,673.60 971.48,677.86 989.98,683.81 1009.01,689.50 1024.33,693.56 1045.44,698.80 1057.64,701.75 1073.56,705.22 1092.33,709.01 1105.57,711.47 1116.01,713.39 1126.54,715.15 1149.26,718.59 1160.99,720.41 1169.75,721.42"/>
        <lane id="206.0_1" index="1" speed="13.89" length="858.85" width="3.66" shape="416.61,337.90 428.82,347.54 443.96,359.96 458.91,371.99 474.72,384.82 490.63,397.27 501.06,405.69 516.55,418.03 531.81,430.46 546.94,442.90 563.24,455.91 576.08,466.08 587.96,475.29 606.25,488.99 621.84,500.30 637.61,511.42 655.09,523.40 672.32,534.68 687.24,544.13 697.20,550.23 709.38,557.78 724.08,566.72 734.98,573.13 747.21,580.22 762.02,588.50 776.23,596.13 789.61,603.21 801.91,609.62 813.60,615.47 832.89,624.89 851.61,633.47 871.01,642.43 892.86,651.86 907.34,657.88 926.84,665.46 940.22,670.61 958.00,677.05 970.32,681.33 988.89,687.30 1008.02,693.02 1023.42,697.11 1044.57,702.35 1056.82,705.32 1072.81,708.80 1091.63,712.60 1104.91,715.07 1115.38,717.00 1125.96,718.76 1148.71,722.21 1160.50,724.04 1169.33,725.05"/>
    </edge>
    <edge id="211.0" from="junction_16" to="node_211_end" priority="-1" type="town" shape="1292.93,736.62 1312.84,737.96 1346.68,740.09 1359.41,740.93 1372.28,741.55 1385.10,742.11 1389.80,742.28">
        <lane id="211.0_0" index="0" speed="13.89" length="95.34" width="3.66" shape="1293.55,727.49 1313.44,728.83 1347.26,730.96 1359.93,731.79 1372.70,732.41 1385.48,732.97 1388.61,733.08"/>
        <lane id="211.0_1" index="1" speed="13.89" length="95.34" width="3.66" shape="1293.30,731.14 1313.20,732.48 1347.03,734.61 1359.73,735.45 1372.53,736.07 1385.33,736.62 1388.47,736.74"/>
        <lane id="211.0_2" index="2" speed="13.89" length="95.34" width="3.66" shape="1293.06,734.79 1312.96,736.13 1346.80,738.26 1359.52,739.10 1372.37,739.72 1385.18,740.28 1388.34,740.40"/>
    </edge>
    <edge id="216.0" from="node_216_start" to="node_216_end" priority="-1" type="town" shape="3683.99,765.82 3704.46,766.20 3737.87,767.44 3750.42,767.90 3775.79,768.60 3800.68,768.87 3832.08,769.10 3865.66,769.33 3873.28,769.44">
        <lane id="216.0_0" index="0" disallow="all" speed="13.89" length="187.67" width="3.66" shape="3685.66,756.70 3704.72,757.05 3738.21,758.30 3750.72,758.75 3775.97,759.45 3800.77,759.72 3832.15,759.95 3865.74,760.18 3873.27,760.29" type="shoulder"/>
        <lane id="216.0_1" index="1" speed="13.89" length="187.67" width="3.66" shape="3685.59,760.36 3704.62,760.71 3738.08,761.95 3750.60,762.41 3775.90,763.11 3800.73,763.38 3832.12,763.61 3865.71,763.84 3873.21,763.95"/>
        <lane id="216.0_2" index="2" speed="13.89" length="187.67" width="3.66" shape="3685.53,764.02 3704.51,764.37 3737.94,765.61 3750.48,766.07 3775.83,766.77 3800.70,767.04 3832.10,767.27 3865.68,767.50 3873.16,767.61"/>
    </edge>
    <edge id="218.0" from="node_218_start" to="node_218_end" priority="-1" type="town" shape="4135.25,772.48 4137.09,772.50 4148.15,772.61 4166.86,772.80 4177.48,772.96 4186.86,773.07 4200.19,773.24 4209.91,773.36 4219.42,773.47 4235.56,773.60 4244.26,773.69 4252.92,773.76 4262.58,773.86 4269.33,773.95 4279.79,774.07 4290.78,774.15 4301.64,774.29 4315.03,774.41">
        <lane id="218.0_0" index="0" disallow="all" speed="13.89" length="178.13" width="3.66" shape="4136.85,763.35 4137.18,763.35 4148.24,763.46 4166.97,763.65 4177.61,763.81 4186.98,763.92 4200.31,764.09 4210.02,764.21 4219.51,764.32 4235.64,764.45 4244.35,764.54 4253.01,764.61 4262.69,764.71 4269.44,764.80 4279.88,764.92 4290.87,765.00 4301.74,765.14 4314.96,765.26" type="shoulder"/>
        <lane id="218.0_1" index="1" speed="13.89" length="178.13" width="3.66" shape="4136.81,767.01 4137.15,767.01 4148.21,767.12 4166.93,767.31 4177.56,767.47 4186.93,767.58 4200.26,767.75 4209.98,767.87 4219.47,767.98 4235.61,768.11 4244.31,768.20 4252.97,768.27 4262.65,768.37 4269.40,768.46 4279.84,768.58 4290.84,768.66 4301.70,768.80 4314.93,768.92"/>
        <lane id="218.0_2" index="2" speed="13.89" length="178.13" width="3.66" shape="4136.77,770.67 4137.11,770.67 4148.17,770.78 4166.88,770.97 4177.51,771.13 4186.89,771.24 4200.22,771.41 4209.93,771.53 4219.44,771.64 4235.58,771.77 4244.28,771.86 4252.94,771.93 4262.60,772.03 4269.35,772.12 4279.81,772.24 4290.80,772.32 4301.66,772.46 4314.90,772.58"/>
    </edge>
    <edge id="219.0" from="node_219_start" to="junction_73" priority="-1" type="town" shape="5266.53,784.50 5278.08,784.61 5289.19,784.69 5300.79,784.87 5309.48,784.97 5318.83,785.07 5332.91,785.25 5341.55,785.32 5348.84,785.42 5360.57,785.54 5369.56,785.61 5379.41,785.75 5385.98,785.84 5391.75,785.91 5398.55,785.96 5408.34,786.07 5414.07,786.15 5425.28,786.28 5441.92,786.50 5463.71,786.68 5476.28,786.83 5517.59,787.44 5532.38,787.60 5544.81,787.74 5556.03,787.86 5564.25,787.93">
        <lane id="219.0_0" index="0" speed="13.89" length="296.23" width="3.66" shape="5268.09,779.02 5278.13,779.12 5289.26,779.20 5300.87,779.38 5309.54,779.48 5318.90,779.58 5332.97,779.76 5341.61,779.83 5348.91,779.93 5360.62,780.05 5369.62,780.12 5379.49,780.26 5386.05,780.35 5391.81,780.42 5398.61,780.47 5408.41,780.58 5414.14,780.66 5425.35,780.79 5441.98,781.01 5463.77,781.19 5476.36,781.34 5517.67,781.95 5532.44,782.11 5544.87,782.25 5556.09,782.37 5564.30,782.44"/>
        <lane id="219.0_1" index="1" speed="13.89" length="296.23" width="3.66" shape="5268.05,782.68 5278.10,782.78 5289.21,782.86 5300.82,783.04 5309.50,783.14 5318.85,783.24 5332.93,783.42 5341.57,783.49 5348.86,783.59 5360.59,783.71 5369.58,783.78 5379.44,783.92 5386.01,784.01 5391.77,784.08 5398.57,784.13 5408.37,784.24 5414.10,784.32 5425.31,784.45 5441.94,784.67 5463.73,784.85 5476.31,785.00 5517.62,785.61 5532.40,785.77 5544.83,785.91 5556.05,786.03 5564.27,786.10"/>
    </edge>
    <edge id="220.0" from="node_216_end" to="node_220_end" priority="-1" type="town" shape="3873.28,769.44 3904.04,769.91 3911.11,769.98 3928.65,770.14 3943.92,770.32 3953.28,770.44">
        <lane id="220.0_0" index="0" disallow="all" speed="13.89" length="78.34" width="3.66" shape="3873.57,760.29 3904.17,760.76 3911.20,760.83 3928.75,760.99 3944.03,761.17 3951.90,761.27" type="shoulder"/>
        <lane id="220.0_1" index="1" speed="13.89" length="78.34" width="3.66" shape="3873.51,763.95 3904.12,764.42 3911.16,764.49 3928.71,764.65 3943.99,764.83 3951.85,764.93"/>
        <lane id="220.0_2" index="2" speed="13.89" length="78.34" width="3.66" shape="3873.46,767.61 3904.07,768.08 3911.13,768.15 3928.67,768.31 3943.94,768.49 3951.80,768.59"/>
    </edge>
    <edge id="222.0" from="node_220_end" to="node_218_start" priority="-1" type="town" shape="3953.28,770.44 3957.50,770.49 3971.07,770.67 3989.92,770.85 4010.77,771.03 4026.87,771.21 4039.10,771.35 4050.17,771.46 4060.15,771.60 4069.80,771.72 4081.72,771.84 4091.74,771.93 4105.00,772.12 4113.71,772.24 4125.21,772.38 4135.25,772.48">
        <lane id="222.0_0" index="0" speed="13.89" length="178.97" width="3.66" shape="3954.85,764.97 3957.57,765.00 3971.13,765.18 3989.97,765.36 4010.83,765.54 4026.93,765.72 4039.16,765.86 4050.24,765.97 4060.23,766.11 4069.86,766.23 4081.78,766.35 4091.81,766.44 4105.08,766.63 4113.78,766.75 4125.27,766.89 4133.81,766.98"/>
        <lane id="222.0_1" index="1" speed="13.89" length="178.97" width="3.66" shape="3954.81,768.63 3957.53,768.66 3971.09,768.84 3989.94,769.02 4010.79,769.20 4026.89,769.38 4039.12,769.52 4050.19,769.63 4060.18,769.77 4069.82,769.89 4081.74,770.01 4091.76,770.10 4105.03,770.29 4113.74,770.41 4125.23,770.55 4133.77,770.64"/>
    </edge>
    <edge id="223.0" from="junction_17" to="node_223_end" priority="-1" type="town" shape="2892.05,751.55 3385.99,762.16 3395.40,762.26 3398.47,762.29 3412.25,762.41">
        <lane id="223.0_0" index="0" speed="13.89" length="518.72" width="3.66" shape="2892.24,742.40 3386.14,753.01 3395.50,753.11 3398.55,753.14 3410.80,753.25"/>
        <lane id="223.0_1" index="1" speed="13.89" length="518.72" width="3.66" shape="2892.16,746.06 3386.08,756.67 3395.46,756.77 3398.52,756.80 3410.77,756.91"/>
        <lane id="223.0_2" index="2" speed="13.89" length="518.72" width="3.66" shape="2892.09,749.72 3386.02,760.33 3395.42,760.43 3398.49,760.46 3410.74,760.57"/>
    </edge>
    <edge id="225.0" from="node_218_end" to="node_225_end" priority="-1" type="town" shape="4315.03,774.41 4334.64,774.58 4343.92,774.69 4353.62,774.76 4367.57,774.87 4380.92,775.01 4394.90,775.12 4405.38,775.26 4421.72,775.43 4436.28,775.56 4450.56,775.75 4462.25,775.90 4479.08,776.12 4495.54,776.23 4505.05,776.35 4515.34,776.45 4524.88,776.59 4536.42,776.73 4545.99,776.82 4557.71,776.90 4571.84,777.03 4588.38,777.21 4598.97,777.33 4607.44,777.42 4620.32,777.54 4632.71,777.72 4644.82,777.84 4652.80,777.96 4660.75,778.07 4666.76,778.16 4675.61,778.24 4680.52,778.31 4686.35,778.40 4691.18,778.44 4698.40,778.53 4705.79,778.61 4720.30,778.76 4726.00,778.82 4734.10,778.89 4749.18,779.02 4761.05,779.16 4774.27,779.30 4786.04,779.40 4797.20,779.54 4807.31,779.62 4815.10,779.70 4824.50,779.80 4835.07,779.88 4844.41,779.99 4855.07,780.09 4866.88,780.19 4876.15,780.29 4882.63,780.38 4886.92,780.40 4891.60,780.47 4899.25,780.56 4903.93,780.59 4909.99,780.68 4917.20,780.75 4928.32,780.87 4937.50,780.92 4945.44,781.06 4957.06,781.12 4971.45,781.31 4981.01,781.40 4992.97,781.52 5003.35,781.64 5013.15,781.75 5022.13,781.80 5030.53,781.88">
        <lane id="225.0_0" index="0" disallow="all" speed="13.89" length="715.24" width="3.66" shape="4315.26,765.26 4334.73,765.43 4344.01,765.54 4353.69,765.61 4367.66,765.72 4381.01,765.86 4395.00,765.97 4405.49,766.11 4421.81,766.28 4436.38,766.41 4450.68,766.60 4462.37,766.75 4479.17,766.97 4495.62,767.08 4505.15,767.20 4515.45,767.30 4525.00,767.44 4536.52,767.58 4546.07,767.67 4557.79,767.75 4571.94,767.88 4588.48,768.06 4599.07,768.18 4607.53,768.27 4620.43,768.39 4632.82,768.57 4644.93,768.69 4652.93,768.81 4660.88,768.92 4666.87,769.01 4675.71,769.09 4680.66,769.16 4686.46,769.25 4691.28,769.29 4698.51,769.38 4705.89,769.46 4720.40,769.61 4726.09,769.67 4734.18,769.74 4749.27,769.87 4761.15,770.01 4774.36,770.15 4786.14,770.25 4797.30,770.39 4807.39,770.47 4815.20,770.55 4824.59,770.65 4835.16,770.73 4844.51,770.84 4855.15,770.94 4866.97,771.04 4876.26,771.14 4882.73,771.23 4887.01,771.25 4891.72,771.32 4899.34,771.41 4904.03,771.44 4910.10,771.53 4917.30,771.60 4928.40,771.72 4937.60,771.77 4945.55,771.91 4957.15,771.97 4971.56,772.16 4981.10,772.25 4993.07,772.37 5003.46,772.49 5013.23,772.60 5022.20,772.65 5030.47,772.73" type="shoulder"/>
        <lane id="225.0_1" index="1" speed="13.89" length="715.24" width="3.66" shape="4315.23,768.92 4334.70,769.09 4343.97,769.20 4353.66,769.27 4367.62,769.38 4380.97,769.52 4394.96,769.63 4405.45,769.77 4421.78,769.94 4436.34,770.07 4450.63,770.26 4462.32,770.41 4479.14,770.63 4495.59,770.74 4505.11,770.86 4515.41,770.96 4524.96,771.10 4536.48,771.24 4546.04,771.33 4557.76,771.41 4571.90,771.54 4588.44,771.72 4599.03,771.84 4607.50,771.93 4620.39,772.05 4632.78,772.23 4644.89,772.35 4652.88,772.47 4660.83,772.58 4666.83,772.67 4675.67,772.75 4680.60,772.82 4686.42,772.91 4691.24,772.95 4698.47,773.04 4705.85,773.12 4720.36,773.27 4726.05,773.33 4734.15,773.40 4749.24,773.53 4761.11,773.67 4774.33,773.81 4786.10,773.91 4797.26,774.05 4807.36,774.13 4815.16,774.21 4824.55,774.31 4835.13,774.39 4844.47,774.50 4855.12,774.60 4866.93,774.70 4876.22,774.80 4882.69,774.89 4886.98,774.91 4891.67,774.98 4899.31,775.07 4903.99,775.10 4910.06,775.19 4917.26,775.26 4928.37,775.38 4937.56,775.43 4945.51,775.57 4957.11,775.63 4971.52,775.82 4981.07,775.91 4993.03,776.03 5003.42,776.15 5013.20,776.26 5022.17,776.31 5030.43,776.39"/>
        <lane id="225.0_2" index="2" speed="13.89" length="715.24" width="3.66" shape="4315.20,772.58 4334.66,772.75 4343.94,772.86 4353.64,772.93 4367.59,773.04 4380.94,773.18 4394.92,773.29 4405.40,773.43 4421.74,773.60 4436.30,773.73 4450.59,773.92 4462.28,774.07 4479.10,774.29 4495.56,774.40 4505.07,774.52 4515.36,774.62 4524.91,774.76 4536.44,774.90 4546.01,774.99 4557.73,775.07 4571.86,775.20 4588.40,775.38 4598.99,775.50 4607.46,775.59 4620.34,775.71 4632.74,775.89 4644.84,776.01 4652.83,776.13 4660.78,776.24 4666.78,776.33 4675.63,776.41 4680.55,776.48 4686.37,776.57 4691.20,776.61 4698.42,776.70 4705.81,776.78 4720.32,776.93 4726.02,776.99 4734.12,777.06 4749.20,777.19 4761.07,777.33 4774.29,777.47 4786.06,777.57 4797.22,777.71 4807.33,777.79 4815.12,777.87 4824.52,777.97 4835.09,778.05 4844.43,778.16 4855.09,778.26 4866.90,778.36 4876.17,778.46 4882.65,778.55 4886.94,778.57 4891.63,778.64 4899.27,778.73 4903.95,778.76 4910.01,778.85 4917.22,778.92 4928.34,779.04 4937.52,779.09 4945.46,779.23 4957.08,779.29 4971.47,779.48 4981.03,779.57 4992.99,779.69 5003.37,779.81 5013.17,779.92 5022.15,779.97 5030.40,780.05"/>
    </edge>
    <edge id="226.0" from="node_225_end" to="node_219_start" priority="-1" type="town" shape="5030.53,781.88 5041.60,781.98 5052.93,782.07 5064.66,782.24 5083.06,782.40 5090.53,782.47 5097.40,782.52 5106.54,782.60 5114.64,782.67 5123.09,782.78 5131.37,782.91 5140.81,783.00 5147.90,783.10 5153.43,783.15 5155.37,783.17 5164.48,783.25 5175.15,783.38 5182.95,783.48 5195.57,783.59 5203.34,783.71 5209.16,783.75 5216.80,783.89 5224.20,783.98 5232.35,784.11 5244.57,784.24 5251.01,784.35 5259.89,784.42 5266.53,784.50">
        <lane id="226.0_0" index="0" disallow="all" speed="13.89" length="234.38" width="3.66" shape="5030.77,772.73 5041.68,772.83 5053.04,772.92 5064.77,773.09 5083.14,773.25 5090.61,773.32 5097.48,773.37 5106.62,773.45 5114.74,773.52 5123.22,773.63 5131.49,773.76 5140.92,773.85 5148.01,773.95 5153.52,774.00 5155.46,774.02 5164.58,774.10 5175.27,774.23 5183.05,774.33 5195.68,774.44 5203.45,774.56 5209.28,774.60 5216.94,774.74 5224.33,774.83 5232.47,774.96 5244.69,775.09 5251.12,775.20 5259.98,775.27 5265.14,775.33" type="shoulder"/>
        <lane id="226.0_1" index="1" speed="13.89" length="234.38" width="3.66" shape="5030.73,776.39 5041.65,776.49 5052.99,776.58 5064.73,776.75 5083.11,776.91 5090.58,776.98 5097.45,777.03 5106.59,777.11 5114.70,777.18 5123.17,777.29 5131.44,777.42 5140.88,777.51 5147.97,777.61 5153.48,777.66 5155.42,777.68 5164.54,777.76 5175.22,777.89 5183.01,777.99 5195.63,778.10 5203.41,778.22 5209.24,778.26 5216.89,778.40 5224.28,778.49 5232.42,778.62 5244.64,778.75 5251.08,778.86 5259.95,778.93 5265.09,778.99"/>
        <lane id="226.0_2" index="2" speed="13.89" length="234.38" width="3.66" shape="5030.70,780.05 5041.62,780.15 5052.95,780.24 5064.68,780.41 5083.08,780.57 5090.55,780.64 5097.42,780.69 5106.56,780.77 5114.66,780.84 5123.12,780.95 5131.40,781.08 5140.83,781.17 5147.92,781.27 5153.45,781.32 5155.39,781.34 5164.50,781.42 5175.18,781.55 5182.97,781.65 5195.59,781.76 5203.36,781.88 5209.19,781.92 5216.83,782.06 5224.23,782.15 5232.38,782.28 5244.60,782.41 5251.03,782.52 5259.91,782.59 5265.05,782.65"/>
    </edge>
    <edge id="227.0" from="node_223_end" to="node_227_end" priority="-1" type="town" shape="3412.25,762.41 3451.00,762.74 3469.99,763.01 3496.21,763.39 3509.18,763.52">
        <lane id="227.0_0" index="0" speed="13.89" length="91.46" width="3.66" shape="3413.77,756.93 3451.07,757.25 3470.07,757.52 3496.28,757.90 3505.22,757.99"/>
        <lane id="227.0_1" index="1" speed="13.89" length="91.46" width="3.66" shape="3413.74,760.59 3451.02,760.91 3470.02,761.18 3496.24,761.56 3505.19,761.65"/>
    </edge>
    <edge id="228.0" from="node_227_end" to="node_216_start" priority="-1" type="town" shape="3509.18,763.52 3540.64,763.83 3584.62,764.38 3609.86,764.73 3641.90,765.03 3666.85,765.50 3683.99,765.82">
        <lane id="228.0_0" index="0" speed="13.89" length="169.37" width="3.66" shape="3513.22,758.07 3540.70,758.34 3584.69,758.89 3609.93,759.24 3641.98,759.54 3666.96,760.01 3682.60,760.30"/>
        <lane id="228.0_1" index="1" speed="13.89" length="169.37" width="3.66" shape="3513.18,761.73 3540.66,762.00 3584.65,762.55 3609.88,762.90 3641.93,763.20 3666.89,763.67 3682.53,763.96"/>
    </edge>
    <edge id="234.0" from="node_223_end" to="node_227_end" priority="-1" type="town" shape="3412.27,755.74 3509.34,760.26">
        <lane id="234.0_0" index="0" speed="13.89" length="91.14" width="3.66" shape="3414.12,753.99 3505.15,758.23"/>
    </edge>
    <edge id="819.0" from="junction_72" to="node_820_start" priority="-1" type="town" shape="0.00,0.00 15.57,13.29 36.28,30.92 52.31,44.33 62.79,52.91 71.15,59.84 76.91,64.60">
        <lane id="819.0_0" index="0" speed="13.89" length="100.22" width="3.66" shape="3.57,-4.18 19.13,9.11 39.82,26.72 55.81,40.10 66.28,48.67 74.65,55.61 80.28,60.26"/>
        <lane id="819.0_1" index="1" speed="13.89" length="100.22" width="3.66" shape="1.19,-1.39 16.76,11.90 37.46,29.52 53.48,42.92 63.96,51.50 72.32,58.43 77.95,63.08"/>
    </edge>
    <edge id="820.0" from="node_820_start" to="node_206_start" priority="-1" type="town" shape="76.91,64.60 98.66,82.21 114.86,95.25 129.39,106.98 145.13,119.91 161.68,133.21 172.85,142.09 190.21,156.19 209.36,171.66 230.98,189.04 246.05,201.26 261.65,213.73 272.04,222.13 287.86,234.82 299.00,243.67 309.19,251.89 324.43,264.22 339.51,276.36 352.53,287.05 366.21,298.41 376.60,306.92 386.88,315.55 397.25,324.14 407.66,332.72 415.33,339.22">
        <lane id="820.0_0" index="0" speed="13.89" length="435.57" width="3.66" shape="80.50,60.44 102.11,77.94 118.31,90.98 132.86,102.72 148.59,115.65 165.11,128.92 176.29,137.81 193.67,151.92 212.81,167.39 234.43,184.77 249.50,196.98 265.09,209.45 275.48,217.85 291.29,230.53 302.43,239.38 312.64,247.62 327.88,259.95 342.98,272.10 356.03,282.82 369.71,294.18 380.11,302.69 390.40,311.33 400.75,319.91 411.18,328.51 418.74,334.91"/>
        <lane id="820.0_1" index="1" speed="13.89" length="435.57" width="3.66" shape="78.19,63.28 99.81,80.79 116.01,93.83 130.55,105.56 146.29,118.49 162.83,131.78 174.00,140.66 191.36,154.77 210.51,170.24 232.13,187.62 247.20,199.83 262.80,212.30 273.19,220.70 289.00,233.39 300.15,242.24 310.34,250.47 325.58,262.80 340.67,274.94 353.70,285.64 367.38,297.00 377.77,305.51 388.05,314.14 398.42,322.73 408.84,331.32 416.38,337.71"/>
    </edge>