<?xml version='1.0' encoding='utf-8'?>
<edges>
    <edge id="196.0" from="junction_14" to="junction_17" numLanes="3" speed="13.89" type="town" shape="600685.64,3274830.53 600687.92,3274830.54 600687.92,3274830.54 600707.04,3274830.83 600707.04,3274830.83 600726.09,3274831.05 600726.09,3274831.05 600744.80,3274831.11 600744.80,3274831.11 600758.06,3274831.33 600758.06,3274831.33 600777.12,3274831.56 600777.12,3274831.56 600796.63,3274831.84 600796.63,3274831.84 600815.88,3274832.02 600815.88,3274832.02 600847.68,3274832.32 600847.68,3274832.32 600866.76,3274832.43 600866.76,3274832.43 600879.45,3274832.62 600879.45,3274832.62 600898.53,3274832.80 600898.53,3274832.80 600917.43,3274832.98 600917.43,3274832.98 600936.66,3274833.28 600936.66,3274833.28 600955.16,3274833.44 600955.16,3274833.44 600968.47,3274833.72 600968.47,3274833.72 600987.82,3274833.80 600987.82,3274833.80 601000.34,3274834.00 601000.34,3274834.00 601025.85,3274834.24 601025.85,3274834.24 601044.86,3274834.47 601044.86,3274834.47 601057.56,3274834.67 601057.56,3274834.67 601068.93,3274834.82">
        <lane index="0" width="3.66" />
        <lane index="1" width="3.66" />
        <lane index="2" width="3.66" />
    </edge>
    <edge id="206.0" from="node_206_start" to="junction_16" numLanes="2" speed="13.89" type="town" shape="599086.29,3274422.38 599098.63,3274432.13 599098.63,3274432.13 599113.76,3274444.54 599113.76,3274444.54 599128.72,3274456.57 599128.72,3274456.57 599144.54,3274469.41 599144.54,3274469.41 599160.45,3274481.86 599160.45,3274481.86 599170.87,3274490.28 599170.87,3274490.28 599186.36,3274502.62 599186.36,3274502.62 599201.61,3274515.04 599201.61,3274515.04 599216.75,3274527.48 599216.75,3274527.48 599233.06,3274540.50 599233.06,3274540.50 599245.91,3274550.68 599245.91,3274550.68 599257.81,3274559.91 599257.81,3274559.91 599276.12,3274573.62 599276.12,3274573.62 599291.73,3274584.95 599291.73,3274584.95 599307.52,3274596.08 599307.52,3274596.08 599325.03,3274608.08 599325.03,3274608.08 599342.29,3274619.38 599342.29,3274619.38 599357.23,3274628.84 599357.23,3274628.84 599367.20,3274634.95 599367.20,3274634.95 599379.38,3274642.50 599379.38,3274642.50 599394.10,3274651.45 599394.10,3274651.45 599405.01,3274657.87 599405.01,3274657.87 599417.26,3274664.97 599417.26,3274664.97 599432.10,3274673.27 599432.10,3274673.27 599446.33,3274680.90 599446.33,3274680.90 599459.72,3274687.99 599459.72,3274687.99 599472.04,3274694.41 599472.04,3274694.41 599483.75,3274700.27 599483.75,3274700.27 599503.06,3274709.70 599503.06,3274709.70 599521.80,3274718.29 599521.80,3274718.29 599541.22,3274727.26 599541.22,3274727.26 599563.10,3274736.70 599563.10,3274736.70 599577.61,3274742.74 599577.61,3274742.74 599597.14,3274750.33 599597.14,3274750.33 599610.54,3274755.48 599610.54,3274755.48 599628.34,3274761.93 599628.34,3274761.93 599640.70,3274766.23 599640.70,3274766.23 599659.31,3274772.21 599659.31,3274772.21 599678.48,3274777.94 599678.48,3274777.94 599693.92,3274782.04 599693.92,3274782.04 599715.09,3274787.29 599715.09,3274787.29 599727.37,3274790.26 599727.37,3274790.26 599743.39,3274793.75 599743.39,3274793.75 599762.24,3274797.56 599762.24,3274797.56 599775.53,3274800.03 599775.53,3274800.03 599786.02,3274801.96 599786.02,3274801.96 599796.63,3274803.73 599796.63,3274803.73 599819.39,3274807.18 599819.39,3274807.18 599831.21,3274809.01 599831.21,3274809.01 599840.08,3274810.03">
        <lane index="0" width="3.66" />
        <lane index="1" width="3.66" />
    </edge>
    <edge id="211.0" from="junction_16" to="node_211_end" numLanes="3" speed="13.89" type="town" shape="599963.89,3274819.78 599983.80,3274821.12 599983.80,3274821.12 600017.64,3274823.25 600017.64,3274823.25 600030.37,3274824.09 600030.37,3274824.09 600043.24,3274824.71 600043.24,3274824.71 600056.06,3274825.27 600056.06,3274825.27 600060.76,3274825.44">
        <lane index="0" width="3.66" />
        <lane index="1" width="3.66" />
        <lane index="2" width="3.66" />
    </edge>
    <edge id="216.0" from="node_216_start" to="node_216_end" numLanes="3" speed="13.89" type="town" shape="602354.95,3274848.98 602375.42,3274849.36 602375.42,3274849.36 602408.83,3274850.60 602408.83,3274850.60 602421.38,3274851.06 602421.38,3274851.06 602446.75,3274851.76 602446.75,3274851.76 602471.64,3274852.03 602471.64,3274852.03 602503.04,3274852.26 602503.04,3274852.26 602536.62,3274852.49 602536.62,3274852.49 602544.24,3274852.60">
        <lane index="0" width="3.66" type="shoulder" disallow="all" />
        <lane index="1" width="3.66" />
        <lane index="2" width="3.66" />
    </edge>
    <edge id="218.0" from="node_218_start" to="node_218_end" numLanes="3" speed="13.89" type="town" shape="602806.21,3274855.64 602808.05,3274855.66 602808.05,3274855.66 602819.11,3274855.77 602819.11,3274855.77 602837.82,3274855.96 602837.82,3274855.96 602848.44,3274856.12 602848.44,3274856.12 602857.82,3274856.23 602857.82,3274856.23 602871.15,3274856.40 602871.15,3274856.40 602880.87,3274856.52 602880.87,3274856.52 602890.38,3274856.63 602890.38,3274856.63 602906.52,3274856.76 602906.52,3274856.76 602915.22,3274856.85 602915.22,3274856.85 602923.88,3274856.92 602923.88,3274856.92 602933.54,3274857.02 602933.54,3274857.02 602940.29,3274857.11 602940.29,3274857.11 602950.75,3274857.23 602950.75,3274857.23 602961.74,3274857.31 602961.74,3274857.31 602972.60,3274857.45 602972.60,3274857.45 602985.99,3274857.57">
        <lane index="0" width="3.66" type="shoulder" disallow="all" />
        <lane index="1" width="3.66" />
        <lane index="2" width="3.66" />
    </edge>
    <edge id="219.0" from="node_219_start" to="junction_73" numLanes="2" speed="13.89" type="town" shape="603937.49,3274867.66 603949.04,3274867.77 603949.04,3274867.77 603960.15,3274867.85 603960.15,3274867.85 603971.75,3274868.03 603971.75,3274868.03 603980.44,3274868.13 603980.44,3274868.13 603989.79,3274868.23 603989.79,3274868.23 604003.87,3274868.41 604003.87,3274868.41 604012.51,3274868.48 604012.51,3274868.48 604019.80,3274868.58 604019.80,3274868.58 604031.53,3274868.70 604031.53,3274868.70 604040.52,3274868.77 604040.52,3274868.77 604050.37,3274868.91 604050.37,3274868.91 604056.94,3274869.00 604056.94,3274869.00 604062.71,3274869.07 604062.71,3274869.07 604069.51,3274869.12 604069.51,3274869.12 604079.30,3274869.23 604079.30,3274869.23 604085.03,3274869.31 604085.03,3274869.31 604096.24,3274869.44 604096.24,3274869.44 604112.88,3274869.66 604112.88,3274869.66 604134.67,3274869.84 604134.67,3274869.84 604147.24,3274869.99 604147.24,3274869.99 604188.55,3274870.60 604188.55,3274870.60 604203.34,3274870.76 604203.34,3274870.76 604215.77,3274870.90 604215.77,3274870.90 604226.99,3274871.02 604226.99,3274871.02 604235.21,3274871.09">
        <lane index="0" width="3.66" />
        <lane index="1" width="3.66" />
    </edge>
    <edge id="220.0" from="node_216_end" to="node_220_end" numLanes="3" speed="13.89" type="town" shape="602544.24,3274852.60 602575.00,3274853.07 602575.00,3274853.07 602582.07,3274853.14 602582.07,3274853.14 602599.61,3274853.30 602599.61,3274853.30 602614.88,3274853.48 602614.88,3274853.48 602624.24,3274853.60">
        <lane index="0" width="3.66" type="shoulder" disallow="all" />
        <lane index="1" width="3.66" />
        <lane index="2" width="3.66" />
    </edge>
    <edge id="222.0" from="node_220_end" to="node_218_start" numLanes="2" speed="13.89" type="town" shape="602624.24,3274853.60 602628.46,3274853.65 602628.46,3274853.65 602642.03,3274853.83 602642.03,3274853.83 602660.88,3274854.01 602660.88,3274854.01 602681.73,3274854.19 602681.73,3274854.19 602697.83,3274854.37 602697.83,3274854.37 602710.06,3274854.51 602710.06,3274854.51 602721.13,3274854.62 602721.13,3274854.62 602731.11,3274854.76 602731.11,3274854.76 602740.76,3274854.88 602740.76,3274854.88 602752.68,3274855.00 602752.68,3274855.00 602762.70,3274855.09 602762.70,3274855.09 602775.96,3274855.28 602775.96,3274855.28 602784.67,3274855.40 602784.67,3274855.40 602796.17,3274855.54 602796.17,3274855.54 602806.21,3274855.64">
        <lane index="0" width="3.66" />
        <lane index="1" width="3.66" />
    </edge>
    <edge id="223.0" from="junction_17" to="node_223_end" numLanes="3" speed="13.89" type="town" shape="602056.95,3274845.32 602066.36,3274845.42 602066.36,3274845.42 602069.43,3274845.45 602069.43,3274845.45 602083.21,3274845.57">
        <lane index="0" width="3.66" />
        <lane index="1" width="3.66" />
        <lane index="2" width="3.66" />
    </edge>
    <edge id="225.0" from="node_218_end" to="node_225_end" numLanes="3" speed="13.89" type="town" shape="602985.99,3274857.57 603005.60,3274857.74 603005.60,3274857.74 603014.88,3274857.85 603014.88,3274857.85 603024.58,3274857.92 603024.58,3274857.92 603038.53,3274858.03 603038.53,3274858.03 603051.88,3274858.17 603051.88,3274858.17 603065.86,3274858.28 603065.86,3274858.28 603076.34,3274858.42 603076.34,3274858.42 603092.68,3274858.59 603092.68,3274858.59 603107.24,3274858.72 603107.24,3274858.72 603121.52,3274858.91 603121.52,3274858.91 603133.21,3274859.06 603133.21,3274859.06 603150.04,3274859.28 603150.04,3274859.28 603166.50,3274859.39 603166.50,3274859.39 603176.01,3274859.51 603176.01,3274859.51 603186.30,3274859.61 603186.30,3274859.61 603195.84,3274859.75 603195.84,3274859.75 603207.38,3274859.89 603207.38,3274859.89 603216.95,3274859.98 603216.95,3274859.98 603228.67,3274860.06 603228.67,3274860.06 603242.80,3274860.19 603242.80,3274860.19 603259.34,3274860.37 603259.34,3274860.37 603269.93,3274860.49 603269.93,3274860.49 603278.40,3274860.58 603278.40,3274860.58 603291.28,3274860.70 603291.28,3274860.70 603303.67,3274860.88 603303.67,3274860.88 603315.78,3274861.00 603315.78,3274861.00 603323.76,3274861.12 603323.76,3274861.12 603331.71,3274861.23 603331.71,3274861.23 603337.72,3274861.32 603337.72,3274861.32 603346.57,3274861.40 603346.57,3274861.40 603351.48,3274861.47 603351.48,3274861.47 603357.31,3274861.56 603357.31,3274861.56 603362.14,3274861.60 603362.14,3274861.60 603369.36,3274861.69 603369.36,3274861.69 603376.75,3274861.77 603376.75,3274861.77 603391.26,3274861.92 603391.26,3274861.92 603396.96,3274861.98 603396.96,3274861.98 603405.06,3274862.05 603405.06,3274862.05 603420.14,3274862.18 603420.14,3274862.18 603432.01,3274862.32 603432.01,3274862.32 603445.23,3274862.46 603445.23,3274862.46 603457.00,3274862.56 603457.00,3274862.56 603468.16,3274862.70 603468.16,3274862.70 603478.27,3274862.78 603478.27,3274862.78 603486.06,3274862.86 603486.06,3274862.86 603495.46,3274862.96 603495.46,3274862.96 603506.03,3274863.04 603506.03,3274863.04 603515.37,3274863.15 603515.37,3274863.15 603526.03,3274863.25 603526.03,3274863.25 603537.84,3274863.35 603537.84,3274863.35 603547.11,3274863.45 603547.11,3274863.45 603553.59,3274863.54 603553.59,3274863.54 603557.88,3274863.56 603557.88,3274863.56 603562.56,3274863.63 603562.56,3274863.63 603570.21,3274863.72 603570.21,3274863.72 603574.89,3274863.75 603574.89,3274863.75 603580.95,3274863.84 603580.95,3274863.84 603588.16,3274863.91 603588.16,3274863.91 603599.28,3274864.03 603599.28,3274864.03 603608.46,3274864.08 603608.46,3274864.08 603616.40,3274864.22 603616.40,3274864.22 603628.02,3274864.28 603628.02,3274864.28 603642.41,3274864.47 603642.41,3274864.47 603651.97,3274864.56 603651.97,3274864.56 603663.93,3274864.68 603663.93,3274864.68 603674.31,3274864.80 603674.31,3274864.80 603684.11,3274864.91 603684.11,3274864.91 603693.09,3274864.96 603693.09,3274864.96 603701.49,3274865.04">
        <lane index="0" width="3.66" type="shoulder" disallow="all" />
        <lane index="1" width="3.66" />
        <lane index="2" width="3.66" />
    </edge>
    <edge id="226.0" from="node_225_end" to="node_219_start" numLanes="3" speed="13.89" type="town" shape="603701.49,3274865.04 603712.56,3274865.14 603712.56,3274865.14 603723.89,3274865.23 603723.89,3274865.23 603735.62,3274865.40 603735.62,3274865.40 603754.02,3274865.56 603754.02,3274865.56 603761.49,3274865.63 603761.49,3274865.63 603768.36,3274865.68 603768.36,3274865.68 603777.50,3274865.76 603777.50,3274865.76 603785.60,3274865.83 603785.60,3274865.83 603794.05,3274865.94 603794.05,3274865.94 603802.33,3274866.07 603802.33,3274866.07 603811.77,3274866.16 603811.77,3274866.16 603818.86,3274866.26 603818.86,3274866.26 603824.39,3274866.31 603824.39,3274866.31 603826.33,3274866.33 603826.33,3274866.33 603835.44,3274866.41 603835.44,3274866.41 603846.11,3274866.54 603846.11,3274866.54 603853.91,3274866.64 603853.91,3274866.64 603866.53,3274866.75 603866.53,3274866.75 603874.30,3274866.87 603874.30,3274866.87 603880.12,3274866.91 603880.12,3274866.91 603887.76,3274867.05 603887.76,3274867.05 603895.16,3274867.14 603895.16,3274867.14 603903.31,3274867.27 603903.31,3274867.27 603915.53,3274867.40 603915.53,3274867.40 603921.97,3274867.51 603921.97,3274867.51 603930.85,3274867.58 603930.85,3274867.58 603937.49,3274867.66">
        <lane index="0" width="3.66" type="shoulder" disallow="all" />
        <lane index="1" width="3.66" />
        <lane index="2" width="3.66" />
    </edge>
    <edge id="227.0" from="node_223_end" to="node_227_end" numLanes="2" speed="13.89" type="town" shape="602083.21,3274845.57 602121.96,3274845.90 602121.96,3274845.90 602140.95,3274846.17 602140.95,3274846.17 602167.17,3274846.55 602167.17,3274846.55 602180.14,3274846.68">
        <lane index="0" width="3.66" />
        <lane index="1" width="3.66" />
    </edge>
    <edge id="228.0" from="node_227_end" to="node_216_start" numLanes="2" speed="13.89" type="town" shape="602180.14,3274846.68 602211.60,3274846.99 602211.60,3274846.99 602255.58,3274847.54 602255.58,3274847.54 602280.82,3274847.89 602280.82,3274847.89 602312.86,3274848.19 602312.86,3274848.19 602337.81,3274848.66 602337.81,3274848.66 602354.95,3274848.98">
        <lane index="0" width="3.66" />
        <lane index="1" width="3.66" />
    </edge>
    <edge id="234.0" from="node_223_end" to="node_227_end" numLanes="1" speed="13.89" type="town" shape="602083.23,3274838.90 602180.30,3274843.42">
        <lane index="0" width="3.66" />
    </edge>
    <edge id="820.0" from="node_820_start" to="node_206_start" numLanes="2" speed="13.89" type="town" shape="598747.87,3274147.76 598769.62,3274165.37 598769.62,3274165.37 598785.82,3274178.41 598785.82,3274178.41 598800.35,3274190.14 598800.35,3274190.14 598816.09,3274203.07 598816.09,3274203.07 598832.64,3274216.37 598832.64,3274216.37 598843.81,3274225.25 598843.81,3274225.25 598861.17,3274239.35 598861.17,3274239.35 598880.32,3274254.82 598880.32,3274254.82 598901.94,3274272.20 598901.94,3274272.20 598917.01,3274284.42 598917.01,3274284.42 598932.61,3274296.89 598932.61,3274296.89 598943.00,3274305.29 598943.00,3274305.29 598958.82,3274317.98 598958.82,3274317.98 598969.96,3274326.83 598969.96,3274326.83 598980.15,3274335.05 598980.15,3274335.05 598995.39,3274347.38 598995.39,3274347.38 599010.47,3274359.52 599010.47,3274359.52 599023.49,3274370.21 599023.49,3274370.21 599037.17,3274381.57 599037.17,3274381.57 599047.56,3274390.08 599047.56,3274390.08 599057.84,3274398.71 599057.84,3274398.71 599068.21,3274407.30 599068.21,3274407.30 599078.62,3274415.88 599078.62,3274415.88 599086.29,3274422.38">
        <lane index="0" width="3.66" />
        <lane index="1" width="3.66" />
    </edge>
    <edge id="821.0" from="node_821_start" to="junction_16" numLanes="1" speed="13.89" type="town" shape="599500.38,3274637.64 599503.74,3274639.58 599503.74,3274639.58 599527.65,3274653.29 599527.65,3274653.29 599553.32,3274668.16 599553.32,3274668.16 599577.78,3274682.25 599577.78,3274682.25 599600.13,3274695.20 599600.13,3274695.20 599626.25,3274710.32 599626.25,3274710.32 599647.25,3274722.21 599647.25,3274722.21 599653.74,3274725.73 599653.74,3274725.73 599665.32,3274731.84 599665.32,3274731.84 599676.82,3274737.59 599676.82,3274737.59 599686.27,3274742.08 599686.27,3274742.08 599697.56,3274747.22 599697.56,3274747.22 599708.60,3274752.06 599708.60,3274752.06 599720.99,3274757.02 599720.99,3274757.02 599730.21,3274760.69 599730.21,3274760.69 599736.09,3274762.98 599736.09,3274762.98 599748.20,3274767.49 599748.20,3274767.49 599760.22,3274771.66 599760.22,3274771.66 599773.61,3274775.94 599773.61,3274775.94 599786.22,3274779.65 599786.22,3274779.65 599799.31,3274783.32 599799.31,3274783.32 599823.67,3274789.62 599823.67,3274789.62 599844.20,3274795.10 599844.20,3274795.10 599863.59,3274799.51 599863.59,3274799.51 599885.68,3274803.89">
        <lane index="0" width="3.66" />
    </edge>
    <edge id="827.0" from="node_827_start" to="junction_14" numLanes="2" speed="13.89" type="town" shape="600143.34,3274826.77 600146.24,3274826.77 600146.24,3274826.77 600152.60,3274826.83 600152.60,3274826.83 600165.21,3274826.94 600165.21,3274826.94 600171.62,3274826.87 600171.62,3274826.87 600182.86,3274826.84">
        <lane index="0" width="3.66" />
        <lane index="1" width="3.66" />
    </edge>
    <edge id="828.0" from="node_211_end" to="node_827_start" numLanes="1" speed="13.89" type="town" shape="600060.99,3274818.13 600063.12,3274818.24 600063.12,3274818.24 600066.11,3274818.43 600066.11,3274818.43 600069.85,3274818.67 600069.85,3274818.67 600074.24,3274818.97 600074.24,3274818.97 600079.17,3274819.30 600079.17,3274819.30 600084.53,3274819.67 600084.53,3274819.67 600090.21,3274820.06 600090.21,3274820.06 600096.10,3274820.47 600096.10,3274820.47 600102.11,3274820.89 600102.11,3274820.89 600108.11,3274821.30 600108.11,3274821.30 600114.00,3274821.70 600114.00,3274821.70 600119.69,3274822.07 600119.69,3274822.07 600125.04,3274822.42 600125.04,3274822.42 600129.97,3274822.73 600129.97,3274822.73 600134.36,3274823.00 600134.36,3274823.00 600138.11,3274823.20 600138.11,3274823.20 600141.10,3274823.34 600141.10,3274823.34 600143.23,3274823.41">
        <lane index="0" width="3.66" />
    </edge>
    <edge id="829.0" from="node_211_end" to="node_827_start" numLanes="2" speed="13.89" type="town" shape="600060.76,3274825.44 600062.90,3274825.51 600062.90,3274825.51 600065.90,3274825.58 600065.90,3274825.58 600069.65,3274825.66 600069.65,3274825.66 600074.06,3274825.75 600074.06,3274825.75 600079.01,3274825.84 600079.01,3274825.84 600084.39,3274825.94 600084.39,3274825.94 600090.09,3274826.04 600090.09,3274826.04 600096.02,3274826.14 600096.02,3274826.14 600102.05,3274826.23 600102.05,3274826.23 600108.08,3274826.32 600108.08,3274826.32 600114.00,3274826.41 600114.00,3274826.41 600119.70,3274826.49 600119.70,3274826.49 600125.08,3274826.57 600125.08,3274826.57 600130.03,3274826.63 600130.03,3274826.63 600134.44,3274826.68 600134.44,3274826.68 600138.20,3274826.73 600138.20,3274826.73 600141.20,3274826.75 600141.20,3274826.75 600143.34,3274826.77">
        <lane index="0" width="3.66" />
        <lane index="1" width="3.66" />
    </edge>
    <edge id="819.0" from="junction_72" to="node_820_start" numLanes="2" speed="13.89" type="town" shape="598670.96,3274083.16 598686.53,3274096.45 598686.53,3274096.45 598707.24,3274114.08 598707.24,3274114.08 598723.27,3274127.49 598723.27,3274127.49 598733.75,3274136.07 598733.75,3274136.07 598742.11,3274143.00 598742.11,3274143.00 598747.87,3274147.76">
        <lane index="0" width="3.66" />
        <lane index="1" width="3.66" />
    </edge>
</edges>