<?xml version='1.0' encoding='utf-8'?>
<edges>
    <edge id="134.0" from="node_134_start" to="node_134_end" numLanes="2" speed="13.89" type="town" shape="747791.16,3290475.06 747777.01,3290471.41 747777.01,3290471.41 747762.71,3290467.50 747762.71,3290467.50 747746.41,3290462.96 747746.41,3290462.96 747731.31,3290458.86 747731.31,3290458.86 747715.69,3290454.58 747715.69,3290454.58 747690.96,3290448.04 747690.96,3290448.04 747682.49,3290445.86 747682.49,3290445.86 747661.85,3290440.79 747661.85,3290440.79 747639.80,3290435.62 747639.80,3290435.62 747624.59,3290431.96 747624.59,3290431.96 747603.73,3290427.25 747603.73,3290427.25 747583.41,3290422.68 747583.41,3290422.68 747558.48,3290417.03 747558.48,3290417.03 747541.62,3290413.09 747541.62,3290413.09 747512.84,3290406.30 747512.84,3290406.30 747485.57,3290399.90 747485.57,3290399.90 747459.39,3290394.08 747459.39,3290394.08 747440.34,3290389.87 747440.34,3290389.87 747420.73,3290385.71 747420.73,3290385.71 747395.12,3290380.48 747395.12,3290380.48 747356.84,3290372.95 747356.84,3290372.95 747318.84,3290365.92 747318.84,3290365.92 747283.17,3290359.97 747283.17,3290359.97 747248.38,3290353.75 747248.38,3290353.75 747232.74,3290351.34 747232.74,3290351.34 747214.85,3290348.79 747214.85,3290348.79 747159.92,3290341.24 747159.92,3290341.24 747137.17,3290338.15 747137.17,3290338.15 747099.59,3290333.05 747099.59,3290333.05 747080.99,3290330.51 747080.99,3290330.51 747059.13,3290327.53 747059.13,3290327.53 747018.62,3290321.99 747018.62,3290321.99 746989.03,3290317.90 746989.03,3290317.90 746943.86,3290311.80 746943.86,3290311.80 746895.77,3290305.25 746895.77,3290305.25 746850.25,3290298.99 746850.25,3290298.99 746801.24,3290292.26 746801.24,3290292.26 746750.65,3290285.48 746750.65,3290285.48 746706.45,3290279.46 746706.45,3290279.46 746664.94,3290273.71 746664.94,3290273.71 746624.96,3290268.25 746624.96,3290268.25 746592.42,3290263.80 746592.42,3290263.80 746534.03,3290255.93 746534.03,3290255.93 746488.41,3290249.83 746488.41,3290249.83 746439.76,3290243.76 746439.76,3290243.76 746419.87,3290241.42 746419.87,3290241.42 746399.99,3290239.27 746399.99,3290239.27 746373.29,3290236.44 746373.29,3290236.44 746339.41,3290233.12 746339.41,3290233.12 746305.11,3290229.63 746305.11,3290229.63 746276.71,3290226.60 746276.71,3290226.60 746240.48,3290222.42 746240.48,3290222.42 746220.30,3290219.85 746220.30,3290219.85 746199.68,3290217.10 746199.68,3290217.10 746175.27,3290213.88 746175.27,3290213.88 746138.87,3290208.94 746138.87,3290208.94 746105.55,3290204.59 746105.55,3290204.59 746091.88,3290202.78 746091.88,3290202.78 746078.15,3290201.14 746078.15,3290201.14 746058.86,3290198.96 746058.86,3290198.96 746036.69,3290196.37">
        <lane index="0" width="3.66" />
        <lane index="1" width="3.66" />
    </edge>
    <edge id="135.0" from="node_135_start" to="node_135_end" numLanes="2" speed="13.89" type="town" shape="748057.52,3290543.62 748044.93,3290540.40 748044.93,3290540.40 748032.35,3290537.19 748032.35,3290537.19 748019.76,3290533.97 748019.76,3290533.97 748007.17,3290530.76">
        <lane index="0" width="3.66" />
        <lane index="1" width="3.66" />
    </edge>
    <edge id="136.0" from="node_135_end" to="node_136_end" numLanes="2" speed="13.89" type="town" shape="748007.17,3290530.76 747992.31,3290526.89 747992.31,3290526.89 747974.48,3290522.38 747974.48,3290522.38 747956.06,3290517.52 747956.06,3290517.52 747934.45,3290511.93 747934.45,3290511.93 747902.26,3290503.72 747902.26,3290503.72 747883.66,3290499.00">
        <lane index="0" width="3.66" />
        <lane index="1" width="3.66" />
    </edge>
    <edge id="139.0" from="node_136_end" to="node_134_start" numLanes="2" speed="13.89" type="town" shape="747883.66,3290499.00 747855.92,3290491.87 747855.92,3290491.87 747834.29,3290486.38 747834.29,3290486.38 747824.51,3290483.83 747824.51,3290483.83 747812.48,3290480.72 747812.48,3290480.72 747791.16,3290475.06">
        <lane index="0" width="3.66" />
        <lane index="1" width="3.66" />
    </edge>
    <edge id="144.0" from="node_134_end" to="node_144_end" numLanes="2" speed="13.89" type="town" shape="746036.69,3290196.37 746024.96,3290195.05 746024.96,3290195.05 746013.48,3290193.83 746013.48,3290193.83 746006.49,3290193.09 746006.49,3290193.09 745994.89,3290191.85 745994.89,3290191.85 745983.39,3290190.52 745983.39,3290190.52 745970.19,3290188.87 745970.19,3290188.87 745955.82,3290187.16 745955.82,3290187.16 745939.48,3290185.11 745939.48,3290185.11 745923.18,3290183.03 745923.18,3290183.03 745906.21,3290180.78 745906.21,3290180.78 745892.35,3290178.80 745892.35,3290178.80 745878.36,3290176.80 745878.36,3290176.80 745864.42,3290174.74 745864.42,3290174.74 745846.16,3290172.00 745846.16,3290172.00 745832.72,3290169.94 745832.72,3290169.94 745819.47,3290167.80 745819.47,3290167.80 745805.75,3290165.60 745805.75,3290165.60 745789.66,3290163.03 745789.66,3290163.03 745772.44,3290160.14 745772.44,3290160.14 745752.82,3290156.83 745752.82,3290156.83 745734.58,3290153.68 745734.58,3290153.68 745715.15,3290150.20 745715.15,3290150.20 745694.46,3290146.39 745694.46,3290146.39 745679.32,3290143.59 745679.32,3290143.59 745673.36,3290142.45">
        <lane index="0" width="3.66" />
        <lane index="1" width="3.66" />
    </edge>
    <edge id="809.0" from="node_809_start" to="node_135_start" numLanes="2" speed="13.89" type="town" shape="749155.75,3290824.86 749130.34,3290818.36 749130.34,3290818.36 749100.54,3290810.68 749100.54,3290810.68 749045.21,3290796.56 749045.21,3290796.56 748994.01,3290783.41 748994.01,3290783.41 748975.73,3290778.73 748975.73,3290778.73 748957.15,3290774.20 748957.15,3290774.20 748927.50,3290767.62 748927.50,3290767.62 748892.17,3290759.53 748892.17,3290759.53 748860.72,3290751.95 748860.72,3290751.95 748818.35,3290741.04 748818.35,3290741.04 748758.12,3290725.47 748758.12,3290725.47 748727.30,3290716.86 748727.30,3290716.86 748696.47,3290707.94 748696.47,3290707.94 748671.23,3290700.83 748671.23,3290700.83 748645.83,3290694.25 748645.83,3290694.25 748599.14,3290682.33 748599.14,3290682.33 748551.59,3290670.16 748551.59,3290670.16 748514.13,3290660.52 748514.13,3290660.52 748461.52,3290647.04 748461.52,3290647.04 748402.53,3290631.97 748402.53,3290631.97 748349.35,3290618.28 748349.35,3290618.28 748285.64,3290601.93 748285.64,3290601.93 748221.42,3290585.53 748221.42,3290585.53 748170.92,3290572.51 748170.92,3290572.51 748117.19,3290558.85 748117.19,3290558.85 748057.52,3290543.62">
        <lane index="0" width="3.66" />
        <lane index="1" width="3.66" />
    </edge>
</edges>