<?xml version='1.0' encoding='utf-8'?>
<nodes>
    <node id="node_0_start" x="738224.7595786521" y="3287335.306881536" type="priority" />
    <node id="node_573_start" x="736070.5392836613" y="3287329.5083197723" type="priority" />
    <node id="node_573_end" x="736104.0256288485" y="3287329.19346719" type="priority" />
    <node id="node_575_start" x="733114.5646164962" y="3287183.368929979" type="priority" />
    <node id="node_576_start" x="736808.1910075024" y="3287257.552350005" type="priority" />
    <node id="node_576_end" x="737549.5429524499" y="3287170.4683632227" type="priority" />
    <node id="node_577_start" x="735303.8862208625" y="3287260.1982589196" type="priority" />
    <node id="node_578_start" x="737622.7388017864" y="3287161.199705931" type="priority" />
    <node id="node_579_end" x="733374.4355081533" y="3287252.594710647" type="priority" />
    <node id="node_580_start" x="736289.9301020638" y="3287318.639331504" type="priority" />
    <node id="node_580_end" x="736304.7439689568" y="3287316.8572022803" type="priority" />
    <node id="node_581_end" x="736363.7142652876" y="3287309.1987061542" type="priority" />
    <node id="node_582_start" x="735651.4910671895" y="3287318.877181083" type="priority" />
    <node id="node_582_end" x="735799.5249899288" y="3287322.9448252763" type="priority" />
    <node id="node_583_end" x="737859.8934542392" y="3287148.1381909642" type="priority" />
    <node id="node_584_start" x="736759.1054292026" y="3287263.354458642" type="priority" />
    <node id="node_586_start" x="735913.6040566105" y="3287326.0752013354" type="priority" />
    <node id="node_587_start" x="736522.3895991058" y="3287290.3546512546" type="priority" />
    <node id="node_587_end" x="736684.7731518758" y="3287272.216119546" type="priority" />
    <node id="node_591_start" x="733023.5754121771" y="3287242.4685911927" type="priority" />
    <node id="node_591_end" x="733037.4949706295" y="3287242.8941218965" type="priority" />
    <node id="node_593_end" x="735651.9424486994" y="3287316.250888741" type="priority" />
    <node id="node_594_start" x="736363.6822075523" y="3287307.080251885" type="priority" />
    <node id="node_594_end" x="736522.4476251716" y="3287288.3577876687" type="priority" />
    <node id="node_595_start" x="733374.9417748846" y="3287245.20984244" type="priority" />
    <node id="node_595_end" x="733514.2297993737" y="3287252.893448234" type="priority" />
    <node id="node_597_start" x="733513.962458866" y="3287256.573219243" type="priority" />
    <node id="node_598_start" x="737577.9169810807" y="3287164.5713073546" type="priority" />
    <node id="node_599_start" x="737563.5285469948" y="3287166.040418599" type="priority" />
    <node id="node_603_start" x="737549.3157187008" y="3287167.530829895" type="priority" />
    <node id="node_604_end" x="737986.8775168296" y="3287219.314634766" type="priority" />
    <node id="node_609_start" x="736698.7895202375" y="3287270.444561398" type="priority" />
    <node id="node_612_start" x="732818.7800382469" y="3287222.992882108" type="priority" />
    <node id="node_612_end" x="732963.6404185384" y="3287183.0451732883" type="priority" />
    <node id="node_615_start" x="732818.942147048" y="3287236.726399759" type="priority" />
    <node id="node_618_start" x="738339.6691541332" y="3287354.729527622" type="priority" />
    <node id="node_618_end" x="738435.5239775692" y="3287396.687619124" type="priority" />
    <node id="node_619_end" x="738501.011005655" y="3287434.9402640224" type="priority" />
    <node id="node_621_start" x="738042.3997585545" y="3287240.051096168" type="priority" />
    <node id="node_621_end" x="738085.7948485133" y="3287256.733921717" type="priority" />
    <node id="node_622_start" x="738571.9264480637" y="3287490.0477809883" type="priority" />
    <node id="node_622_end" x="738606.7400140365" y="3287519.9340416603" type="priority" />
    <node id="node_623_start" x="739762.6070832794" y="3288263.1284144856" type="priority" />
    <node id="node_623_end" x="739807.7197187159" y="3288283.5256647673" type="priority" />
    <node id="node_624_start" x="740458.0490822515" y="3288538.8220140315" type="priority" />
    <node id="node_627_start" x="738978.5955194624" y="3287850.3371934826" type="priority" />
    <node id="node_627_end" x="739338.4996106921" y="3288069.9479456097" type="priority" />
    <node id="node_631_start" x="738505.0430463838" y="3287429.399925648" type="priority" />
    <node id="node_631_end" x="738574.4631805085" y="3287487.184242297" type="priority" />
    <node id="node_635_start" x="739392.9131183211" y="3288094.396860519" type="priority" />
    <node id="node_635_end" x="739554.7510538204" y="3288167.8606704874" type="priority" />
    <node id="node_636_start" x="738643.1725275109" y="3287552.3063815744" type="priority" />
    <node id="node_639_start" x="739708.9475713097" y="3288238.6002540197" type="priority" />
    <node id="node_640_start" x="740320.5217260537" y="3288489.986456571" type="priority" />
    <node id="node_644_end" x="740266.0960648636" y="3288470.450517945" type="priority" />
    <node id="node_807_start" x="735800.6854384881" y="3287309.14032827" type="priority" />
    <node id="node_807_end" x="735914.2621074042" y="3287315.6674478087" type="priority" />
    <node id="node_957_end" x="738061.2975158233" y="3287297.0673794635" type="priority" />
    <node id="node_960_start" x="738051.6707512296" y="3287277.553149767" type="priority" />
    <node id="node_962_end" x="738048.8821352477" y="3287276.8378868015" type="priority" />
    <node id="node_963_end" x="738045.8416898442" y="3287275.6253276924" type="priority" />
    <node id="node_964_start" x="738107.585563152" y="3287140.947882681" type="priority" />
    <node id="node_965_start" x="738025.3784860497" y="3287192.9277837435" type="priority" />
    <node id="node_969_end" x="738100.1438914256" y="3287221.3941193265" type="priority" />
    <node id="node_971_start" x="738102.1567087793" y="3287217.0873242277" type="priority" />
    <node id="node_972_start" x="738104.1377778992" y="3287212.997143652" type="priority" />
    <node id="node_976_start" x="738263.6514080709" y="3287346.8723708596" type="priority" />
    <node id="junction_8" x="0.0" y="0.0" type="priority" />
    <node id="junction_64" x="0.0" y="0.0" type="priority" />
    <node id="junction_59" x="0.0" y="0.0" type="priority" />
    <node id="junction_108" x="0.0" y="0.0" type="priority" />
    <node id="junction_4" x="0.0" y="0.0" type="priority" />
    <node id="junction_10" x="0.0" y="0.0" type="priority" />
    <node id="junction_11" x="0.0" y="0.0" type="priority" />
    <node id="junction_67" x="0.0" y="0.0" type="priority" />
    <node id="junction_60" x="0.0" y="0.0" type="priority" />
    <node id="junction_9" x="0.0" y="0.0" type="priority" />
    <node id="junction_65" x="0.0" y="0.0" type="priority" />
    <node id="junction_5" x="0.0" y="0.0" type="priority" />
    <node id="junction_68" x="0.0" y="0.0" type="priority" />
    <node id="junction_12" x="0.0" y="0.0" type="priority" />
    <node id="junction_66" x="0.0" y="0.0" type="priority" />
    <node id="junction_61" x="0.0" y="0.0" type="priority" />
    <node id="junction_13" x="0.0" y="0.0" type="priority" />
    <node id="junction_69" x="0.0" y="0.0" type="priority" />
    <node id="junction_2" x="0.0" y="0.0" type="priority" />
    <node id="junction_58" x="0.0" y="0.0" type="priority" />
    <node id="junction_15" x="0.0" y="0.0" type="priority" />
    <node id="junction_16" x="0.0" y="0.0" type="priority" />
    <node id="junction_71" x="0.0" y="0.0" type="priority" />
    <node id="junction_14" x="0.0" y="0.0" type="priority" />
    <node id="junction_72" x="0.0" y="0.0" type="priority" />
    <node id="junction_70" x="0.0" y="0.0" type="priority" />
    <node id="junction_1" x="0.0" y="0.0" type="priority" />
    <node id="junction_73" x="0.0" y="0.0" type="priority" />
    <node id="junction_17" x="0.0" y="0.0" type="priority" />
    <node id="junction_18" x="0.0" y="0.0" type="priority" />
    <node id="junction_19" x="0.0" y="0.0" type="priority" />
    <node id="junction_74" x="0.0" y="0.0" type="priority" />
    <node id="junction_76" x="0.0" y="0.0" type="priority" />
    <node id="junction_7" x="0.0" y="0.0" type="priority" />
    <node id="junction_20" x="0.0" y="0.0" type="priority" />
    <node id="junction_75" x="0.0" y="0.0" type="priority" />
    <node id="junction_21" x="0.0" y="0.0" type="priority" />
    <node id="junction_77" x="0.0" y="0.0" type="priority" />
    <node id="junction_78" x="0.0" y="0.0" type="priority" />
    <node id="junction_62" x="0.0" y="0.0" type="priority" />
    <node id="junction_22" x="0.0" y="0.0" type="priority" />
    <node id="junction_79" x="0.0" y="0.0" type="priority" />
    <node id="junction_23" x="0.0" y="0.0" type="priority" />
    <node id="junction_3" x="0.0" y="0.0" type="priority" />
    <node id="junction_80" x="0.0" y="0.0" type="priority" />
    <node id="junction_24" x="0.0" y="0.0" type="priority" />
    <node id="junction_25" x="0.0" y="0.0" type="priority" />
    <node id="junction_81" x="0.0" y="0.0" type="priority" />
    <node id="junction_26" x="0.0" y="0.0" type="priority" />
    <node id="junction_82" x="0.0" y="0.0" type="priority" />
    <node id="junction_27" x="0.0" y="0.0" type="priority" />
    <node id="junction_83" x="0.0" y="0.0" type="priority" />
    <node id="junction_28" x="0.0" y="0.0" type="priority" />
    <node id="junction_84" x="0.0" y="0.0" type="priority" />
    <node id="junction_85" x="0.0" y="0.0" type="priority" />
    <node id="junction_29" x="0.0" y="0.0" type="priority" />
    <node id="junction_86" x="0.0" y="0.0" type="priority" />
    <node id="junction_87" x="0.0" y="0.0" type="priority" />
    <node id="junction_30" x="0.0" y="0.0" type="priority" />
    <node id="junction_6" x="0.0" y="0.0" type="priority" />
    <node id="junction_88" x="0.0" y="0.0" type="priority" />
    <node id="junction_31" x="0.0" y="0.0" type="priority" />
    <node id="junction_89" x="0.0" y="0.0" type="priority" />
    <node id="junction_32" x="0.0" y="0.0" type="priority" />
    <node id="junction_33" x="0.0" y="0.0" type="priority" />
    <node id="junction_91" x="0.0" y="0.0" type="priority" />
    <node id="junction_34" x="0.0" y="0.0" type="priority" />
    <node id="junction_90" x="0.0" y="0.0" type="priority" />
    <node id="junction_92" x="0.0" y="0.0" type="priority" />
    <node id="junction_36" x="0.0" y="0.0" type="priority" />
    <node id="junction_96" x="0.0" y="0.0" type="priority" />
    <node id="junction_39" x="0.0" y="0.0" type="priority" />
    <node id="junction_111" x="0.0" y="0.0" type="priority" />
    <node id="junction_99" x="0.0" y="0.0" type="priority" />
    <node id="junction_97" x="0.0" y="0.0" type="priority" />
    <node id="junction_41" x="0.0" y="0.0" type="priority" />
    <node id="junction_40" x="0.0" y="0.0" type="priority" />
    <node id="junction_106" x="0.0" y="0.0" type="priority" />
    <node id="junction_100" x="0.0" y="0.0" type="priority" />
    <node id="junction_42" x="0.0" y="0.0" type="priority" />
    <node id="junction_101" x="0.0" y="0.0" type="priority" />
    <node id="junction_47" x="0.0" y="0.0" type="priority" />
    <node id="junction_43" x="0.0" y="0.0" type="priority" />
    <node id="junction_98" x="0.0" y="0.0" type="priority" />
    <node id="junction_103" x="0.0" y="0.0" type="priority" />
    <node id="junction_44" x="0.0" y="0.0" type="priority" />
    <node id="junction_102" x="0.0" y="0.0" type="priority" />
    <node id="junction_104" x="0.0" y="0.0" type="priority" />
    <node id="junction_63" x="0.0" y="0.0" type="priority" />
    <node id="junction_105" x="0.0" y="0.0" type="priority" />
    <node id="junction_45" x="0.0" y="0.0" type="priority" />
    <node id="junction_46" x="0.0" y="0.0" type="priority" />
    <node id="junction_48" x="0.0" y="0.0" type="priority" />
    <node id="junction_107" x="0.0" y="0.0" type="priority" />
    <node id="junction_49" x="0.0" y="0.0" type="priority" />
    <node id="junction_109" x="0.0" y="0.0" type="priority" />
    <node id="junction_50" x="0.0" y="0.0" type="priority" />
    <node id="junction_51" x="0.0" y="0.0" type="priority" />
    <node id="junction_110" x="0.0" y="0.0" type="priority" />
    <node id="junction_52" x="0.0" y="0.0" type="priority" />
    <node id="junction_53" x="0.0" y="0.0" type="priority" />
    <node id="junction_113" x="0.0" y="0.0" type="priority" />
    <node id="junction_54" x="0.0" y="0.0" type="priority" />
    <node id="junction_55" x="0.0" y="0.0" type="priority" />
    <node id="junction_95" x="741065.0581220462" y="3288934.380355054" type="priority" />
    <node id="junction_35" x="733281.0599310539" y="3287245.840782691" type="priority" />
    <node id="junction_56" x="738070.1336430203" y="3287216.8398257843" type="priority" />
    <node id="junction_37" x="735485.5406481187" y="3287307.7977442634" type="priority" />
    <node id="junction_114" x="738097.7413759548" y="3287178.2571051894" type="priority" />
    <node id="junction_93" x="737724.0887757972" y="3287158.183945009" type="priority" />
    <node id="junction_57" x="738088.7306806839" y="3287306.8919013953" type="priority" />
    <node id="junction_38" x="738169.1024086432" y="3287269.5236291857" type="priority" />
    <node id="junction_94" x="732689.4695963227" y="3287229.565025213" type="priority" />
</nodes>