<?xml version='1.0' encoding='utf-8'?>
<connections>
    <connection from="964.0" to="973.0" fromLane="0" toLane="0" />
    <connection from="600.0" to="579.0" fromLane="1" toLane="1" />
    <connection from="600.0" to="579.0" fromLane="2" toLane="2" />
    <connection from="597.0" to="593.0" fromLane="1" toLane="3" />
    <connection from="597.0" to="593.0" fromLane="2" toLane="4" />
    <connection from="577.0" to="593.0" fromLane="0" toLane="4" />
    <connection from="629.0" to="647.0" fromLane="1" toLane="1" />
    <connection from="629.0" to="647.0" fromLane="2" toLane="2" />
    <connection from="960.0" to="969.0" fromLane="2" toLane="1" />
    <connection from="0.0" to="957.0" fromLane="1" toLane="0" />
    <connection from="578.0" to="604.0" fromLane="2" toLane="1" />
    <connection from="578.0" to="604.0" fromLane="3" toLane="2" />
    <connection from="578.0" to="583.0" fromLane="0" toLane="0" />
    <connection from="578.0" to="583.0" fromLane="1" toLane="1" />
</connections>