<?xml version='1.0' encoding='utf-8'?>
<edges>
    <edge id="0.0" from="node_0_start" to="junction_57" numLanes="2" speed="13.89" type="town" shape="738224.76,3287335.31 738220.91,3287334.66 738220.91,3287334.66 738211.06,3287332.81 738211.06,3287332.81 738204.32,3287331.58 738204.32,3287331.58 738195.42,3287330.03 738195.42,3287330.03 738189.05,3287328.95 738189.05,3287328.95 738178.30,3287327.35 738178.30,3287327.35 738162.55,3287325.34 738162.55,3287325.34 738141.42,3287321.46 738141.42,3287321.46 738130.39,3287319.16 738130.39,3287319.16 738123.67,3287317.55 738123.67,3287317.55 738116.55,3287315.70 738116.55,3287315.70 738109.58,3287313.76 738109.58,3287313.76 738102.29,3287311.52">
        <lane index="0" width="3.66" type="shoulder" disallow="all" />
        <lane index="1" width="3.66" />
    </edge>
    <edge id="573.0" from="node_573_start" to="node_573_end" numLanes="5" speed="13.89" type="town" shape="736070.54,3287329.51 736104.03,3287329.19">
        <lane index="0" width="3.66" type="shoulder" disallow="all" />
        <lane index="1" width="3.66" />
        <lane index="2" width="3.66" />
        <lane index="3" width="3.66" />
        <lane index="4" width="3.66" type="shoulder" disallow="all" />
    </edge>
    <edge id="575.0" from="node_575_start" to="junction_35" numLanes="1" speed="13.89" type="town" shape="733114.56,3287183.37 733116.60,3287186.19 733116.60,3287186.19 733119.69,3287189.68 733119.69,3287189.68 733124.93,3287195.09 733124.93,3287195.09 733133.62,3287203.20 733133.62,3287203.20 733142.78,3287210.03 733142.78,3287210.03 733149.90,3287214.42 733149.90,3287214.42 733159.27,3287219.09 733159.27,3287219.09 733169.27,3287223.02 733169.27,3287223.02 733183.52,3287227.01 733183.52,3287227.01 733200.97,3287230.52 733200.97,3287230.52 733218.60,3287233.05 733218.60,3287233.05 733233.16,3287234.86 733233.16,3287234.86 733246.80,3287236.71">
        <lane index="0" width="3.66" />
    </edge>
    <edge id="576.0" from="node_576_start" to="node_603_start" numLanes="5" speed="13.89" type="town" shape="736808.19,3287257.55 736814.74,3287256.88 736814.74,3287256.88 736823.87,3287256.16 736823.87,3287256.16 736849.32,3287253.12 736849.32,3287253.12 736875.89,3287249.99 736875.89,3287249.99 736899.55,3287247.32 736899.55,3287247.32 736927.50,3287243.91 736927.50,3287243.91 736951.47,3287240.98 736951.47,3287240.98 736973.11,3287238.47 736973.11,3287238.47 737001.48,3287235.17 737001.48,3287235.17 737022.85,3287232.48 737022.85,3287232.48 737047.97,3287229.68 737047.97,3287229.68 737070.70,3287226.91 737070.70,3287226.91 737103.13,3287223.23 737103.13,3287223.23 737132.35,3287219.79 737132.35,3287219.79 737158.78,3287216.62 737158.78,3287216.62 737181.38,3287214.08 737181.38,3287214.08 737207.48,3287210.89 737207.48,3287210.89 737239.03,3287207.24 737239.03,3287207.24 737268.82,3287203.60 737268.82,3287203.60 737305.65,3287199.16 737305.65,3287199.16 737335.82,3287195.59 737335.82,3287195.59 737366.25,3287191.95 737366.25,3287191.95 737404.57,3287187.41 737404.57,3287187.41 737444.00,3287182.85 737444.00,3287182.85 737482.17,3287178.42 737482.17,3287178.42 737514.31,3287174.67 737514.31,3287174.67 737549.54,3287170.47">
        <lane index="0" width="3.66" type="shoulder" disallow="all" />
        <lane index="1" width="3.66" />
        <lane index="2" width="3.66" />
        <lane index="3" width="3.66" />
        <lane index="4" width="3.66" type="shoulder" disallow="all" />
    </edge>
    <edge id="577.0" from="node_577_start" to="junction_37" numLanes="3" speed="13.89" type="town" shape="735303.89,3287260.20 735337.86,3287271.28 735337.86,3287271.28 735365.44,3287278.99 735365.44,3287278.99 735390.71,3287285.14 735390.71,3287285.14 735405.02,3287288.22 735405.02,3287288.22 735419.99,3287291.16 735419.99,3287291.16 735435.88,3287293.95 735435.88,3287293.95 735453.57,3287296.95 735453.57,3287296.95 735457.74,3287297.64">
        <lane index="0" width="3.66" type="shoulder" disallow="all" />
        <lane index="1" width="3.66" />
        <lane index="2" width="3.66" />
    </edge>
    <edge id="578.0" from="node_578_start" to="junction_93" numLanes="4" speed="13.89" type="town" shape="737622.74,3287161.20 737636.30,3287160.50 737636.30,3287160.50 737645.12,3287160.13 737645.12,3287160.13 737662.17,3287159.78 737662.17,3287159.78 737672.40,3287159.85">
        <lane index="0" width="3.66" type="shoulder" disallow="all" />
        <lane index="1" width="3.66" />
        <lane index="2" width="3.66" />
        <lane index="3" width="3.66" />
    </edge>
    <edge id="579.0" from="junction_35" to="node_579_end" numLanes="3" speed="13.89" type="town" shape="733350.08,3287251.93 733364.89,3287252.36 733364.89,3287252.36 733374.44,3287252.59">
        <lane index="0" width="3.66" />
        <lane index="1" width="3.66" />
        <lane index="2" width="3.66" />
    </edge>
    <edge id="580.0" from="node_580_start" to="node_580_end" numLanes="5" speed="13.89" type="town" shape="736289.93,3287318.64 736304.74,3287316.86">
        <lane index="0" width="3.66" type="shoulder" disallow="all" />
        <lane index="1" width="3.66" />
        <lane index="2" width="3.66" />
        <lane index="3" width="3.66" />
        <lane index="4" width="3.66" type="shoulder" disallow="all" />
    </edge>
    <edge id="581.0" from="node_580_end" to="node_594_start" numLanes="5" speed="13.89" type="town" shape="736304.74,3287316.86 736318.20,3287315.24 736318.20,3287315.24 736334.11,3287313.12 736334.11,3287313.12 736348.98,3287311.21 736348.98,3287311.21 736363.71,3287309.20">
        <lane index="0" width="3.66" type="shoulder" disallow="all" />
        <lane index="1" width="3.66" />
        <lane index="2" width="3.66" />
        <lane index="3" width="3.66" />
        <lane index="4" width="3.66" type="shoulder" disallow="all" />
    </edge>
    <edge id="582.0" from="node_593_end" to="node_582_end" numLanes="6" speed="13.89" type="town" shape="735651.49,3287318.88 735743.42,3287321.50 735743.42,3287321.50 735799.52,3287322.94">
        <lane index="0" width="3.66" type="shoulder" disallow="all" />
        <lane index="1" width="3.66" />
        <lane index="2" width="3.66" />
        <lane index="3" width="3.66" />
        <lane index="4" width="3.66" />
        <lane index="5" width="3.66" type="shoulder" disallow="all" />
    </edge>
    <edge id="583.0" from="junction_93" to="node_583_end" numLanes="2" speed="13.89" type="town" shape="737750.10,3287150.50 737766.21,3287149.60 737766.21,3287149.60 737788.76,3287148.36 737788.76,3287148.36 737815.22,3287147.11 737815.22,3287147.11 737837.74,3287147.05 737837.74,3287147.05 737850.96,3287147.50 737850.96,3287147.50 737859.89,3287148.14">
        <lane index="0" width="3.66" type="shoulder" disallow="all" />
        <lane index="1" width="3.66" />
    </edge>
    <edge id="584.0" from="node_584_start" to="node_576_start" numLanes="5" speed="13.89" type="town" shape="736759.11,3287263.35 736763.87,3287262.76 736763.87,3287262.76 736775.48,3287261.39 736775.48,3287261.39 736786.70,3287260.07 736786.70,3287260.07 736799.21,3287258.60 736799.21,3287258.60 736808.19,3287257.55">
        <lane index="0" width="3.66" type="shoulder" disallow="all" />
        <lane index="1" width="3.66" />
        <lane index="2" width="3.66" />
        <lane index="3" width="3.66" />
        <lane index="4" width="3.66" type="shoulder" disallow="all" />
    </edge>
    <edge id="586.0" from="node_586_start" to="node_573_start" numLanes="5" speed="13.89" type="town" shape="735913.60,3287326.08 735936.24,3287326.72 735936.24,3287326.72 736008.27,3287328.74 736008.27,3287328.74 736063.05,3287329.58 736063.05,3287329.58 736070.54,3287329.51">
        <lane index="0" width="3.66" type="shoulder" disallow="all" />
        <lane index="1" width="3.66" />
        <lane index="2" width="3.66" />
        <lane index="3" width="3.66" />
        <lane index="4" width="3.66" type="shoulder" disallow="all" />
    </edge>
    <edge id="587.0" from="node_594_end" to="node_587_end" numLanes="5" speed="13.89" type="town" shape="736522.39,3287290.35 736542.06,3287289.18 736542.06,3287289.18 736579.62,3287284.83 736579.62,3287284.83 736619.38,3287280.02 736619.38,3287280.02 736642.58,3287277.24 736642.58,3287277.24 736668.48,3287274.12 736668.48,3287274.12 736684.77,3287272.22">
        <lane index="0" width="3.66" type="shoulder" disallow="all" />
        <lane index="1" width="3.66" />
        <lane index="2" width="3.66" />
        <lane index="3" width="3.66" />
        <lane index="4" width="3.66" type="shoulder" disallow="all" />
    </edge>
    <edge id="588.0" from="node_573_end" to="node_580_start" numLanes="5" speed="13.89" type="town" shape="736104.03,3287329.19 736113.97,3287329.10 736113.97,3287329.10 736144.43,3287327.97 736144.43,3287327.97 736175.32,3287326.76 736175.32,3287326.76 736240.69,3287322.90 736240.69,3287322.90 736289.93,3287318.64">
        <lane index="0" width="3.66" type="shoulder" disallow="all" />
        <lane index="1" width="3.66" />
        <lane index="2" width="3.66" />
        <lane index="3" width="3.66" />
        <lane index="4" width="3.66" type="shoulder" disallow="all" />
    </edge>
    <edge id="591.0" from="node_591_start" to="node_591_end" numLanes="3" speed="13.89" type="town" shape="733023.58,3287242.47 733037.49,3287242.89">
        <lane index="0" width="3.66" type="shoulder" disallow="all" />
        <lane index="1" width="3.66" />
        <lane index="2" width="3.66" />
    </edge>
    <edge id="593.0" from="junction_37" to="node_582_start" numLanes="5" speed="13.89" type="town" shape="735542.43,3287313.88 735566.80,3287314.41 735566.80,3287314.41 735587.86,3287314.83 735587.86,3287314.83 735611.80,3287315.36 735611.80,3287315.36 735633.69,3287315.85 735633.69,3287315.85 735651.94,3287316.25">
        <lane index="0" width="3.66" type="shoulder" disallow="all" />
        <lane index="1" width="3.66" />
        <lane index="2" width="3.66" />
        <lane index="3" width="3.66" />
        <lane index="4" width="3.66" />
    </edge>
    <edge id="594.0" from="node_581_end" to="node_587_start" numLanes="4" speed="13.89" type="town" shape="736363.68,3287307.08 736369.90,3287306.34 736369.90,3287306.34 736385.85,3287304.44 736385.85,3287304.44 736404.60,3287302.22 736404.60,3287302.22 736428.20,3287299.44 736428.20,3287299.44 736447.21,3287297.26 736447.21,3287297.26 736465.56,3287295.16 736465.56,3287295.16 736482.57,3287293.16 736482.57,3287293.16 736504.19,3287290.61 736504.19,3287290.61 736518.77,3287288.83 736518.77,3287288.83 736522.45,3287288.36">
        <lane index="0" width="3.66" type="shoulder" disallow="all" />
        <lane index="1" width="3.66" />
        <lane index="2" width="3.66" />
        <lane index="3" width="3.66" />
    </edge>
    <edge id="595.0" from="node_579_end" to="node_597_start" numLanes="1" speed="13.89" type="town" shape="733374.94,3287245.21 733416.03,3287247.87 733416.03,3287247.87 733447.55,3287249.48 733447.55,3287249.48 733472.16,3287250.74 733472.16,3287250.74 733514.23,3287252.89">
        <lane index="0" width="3.66" />
    </edge>
    <edge id="597.0" from="node_597_start" to="junction_37" numLanes="3" speed="13.89" type="town" shape="733513.96,3287256.57 733539.23,3287257.28 733539.23,3287257.28 733566.09,3287258.07 733566.09,3287258.07 733588.23,3287258.68 733588.23,3287258.68 733613.08,3287259.37 733613.08,3287259.37 733636.53,3287260.02 733636.53,3287260.02 733663.10,3287260.76 733663.10,3287260.76 733688.95,3287261.44 733688.95,3287261.44 733708.57,3287261.99 733708.57,3287261.99 733733.74,3287262.74 733733.74,3287262.74 733757.25,3287263.37 733757.25,3287263.37 733779.73,3287264.01 733779.73,3287264.01 733801.47,3287264.63 733801.47,3287264.63 733818.89,3287265.10 733818.89,3287265.10 733845.36,3287265.86 733845.36,3287265.86 733870.14,3287266.56 733870.14,3287266.56 733895.97,3287267.25 733895.97,3287267.25 733918.61,3287267.91 733918.61,3287267.91 733944.65,3287268.67 733944.65,3287268.67 733962.92,3287269.18 733962.92,3287269.18 733988.84,3287269.93 733988.84,3287269.93 734017.66,3287270.79 734017.66,3287270.79 734049.70,3287271.73 734049.70,3287271.73 734085.90,3287272.83 734085.90,3287272.83 734113.17,3287273.60 734113.17,3287273.60 734139.74,3287274.37 734139.74,3287274.37 734172.24,3287275.33 734172.24,3287275.33 734203.54,3287276.25 734203.54,3287276.25 734228.67,3287276.95 734228.67,3287276.95 734254.83,3287277.65 734254.83,3287277.65 734294.82,3287278.78 734294.82,3287278.78 734334.17,3287279.85 734334.17,3287279.85 734373.33,3287280.98 734373.33,3287280.98 734413.32,3287282.13 734413.32,3287282.13 734443.22,3287283.07 734443.22,3287283.07 734473.17,3287283.89 734473.17,3287283.89 734499.13,3287284.67 734499.13,3287284.67 734521.36,3287285.28 734521.36,3287285.28 734548.39,3287286.05 734548.39,3287286.05 734572.21,3287286.76 734572.21,3287286.76 734601.07,3287287.62 734601.07,3287287.62 734627.97,3287288.38 734627.97,3287288.38 734651.66,3287289.01 734651.66,3287289.01 734678.69,3287289.71 734678.69,3287289.71 734710.06,3287290.48 734710.06,3287290.48 734737.63,3287291.15 734737.63,3287291.15 734763.90,3287291.83 734763.90,3287291.83 734788.86,3287292.55 734788.86,3287292.55 734811.69,3287293.21 734811.69,3287293.21 734830.68,3287293.82 734830.68,3287293.82 734857.44,3287294.62 734857.44,3287294.62 734891.33,3287295.58 734891.33,3287295.58 734926.74,3287296.66 734926.74,3287296.66 734958.56,3287297.61 734958.56,3287297.61 734981.89,3287298.33 734981.89,3287298.33 735007.91,3287299.07 735007.91,3287299.07 735044.88,3287300.09 735044.88,3287300.09 735076.12,3287301.00 735076.12,3287301.00 735114.32,3287302.17 735114.32,3287302.17 735150.04,3287303.16 735150.04,3287303.16 735178.39,3287303.92 735178.39,3287303.92 735205.94,3287304.68 735205.94,3287304.68 735233.48,3287305.44 735233.48,3287305.44 735256.97,3287306.12 735256.97,3287306.12 735280.66,3287306.82 735280.66,3287306.82 735301.86,3287307.42 735301.86,3287307.42 735329.46,3287308.22 735329.46,3287308.22 735349.67,3287308.79 735349.67,3287308.79 735377.65,3287309.60 735377.65,3287309.60 735399.09,3287310.22 735399.09,3287310.22 735420.56,3287310.86 735420.56,3287310.86 735442.61,3287311.52 735442.61,3287311.52 735456.46,3287311.87">
        <lane index="0" width="3.66" type="shoulder" disallow="all" />
        <lane index="1" width="3.66" />
        <lane index="2" width="3.66" />
    </edge>
    <edge id="598.0" from="node_598_start" to="node_578_start" numLanes="4" speed="13.89" type="town" shape="737577.92,3287164.57 737591.62,3287163.44 737591.62,3287163.44 737605.69,3287162.33 737605.69,3287162.33 737622.74,3287161.20">
        <lane index="0" width="3.66" type="shoulder" disallow="all" />
        <lane index="1" width="3.66" />
        <lane index="2" width="3.66" />
        <lane index="3" width="3.66" />
    </edge>
    <edge id="599.0" from="node_599_start" to="node_598_start" numLanes="4" speed="13.89" type="town" shape="737563.53,3287166.04 737567.82,3287165.59 737567.82,3287165.59 737577.92,3287164.57">
        <lane index="0" width="3.66" type="shoulder" disallow="all" />
        <lane index="1" width="3.66" />
        <lane index="2" width="3.66" />
        <lane index="3" width="3.66" />
    </edge>
    <edge id="600.0" from="node_591_end" to="junction_35" numLanes="3" speed="13.89" type="town" shape="733037.49,3287242.89 733066.61,3287243.76 733066.61,3287243.76 733094.13,3287244.45 733094.13,3287244.45 733119.84,3287245.23 733119.84,3287245.23 733142.93,3287245.89 733142.93,3287245.89 733166.36,3287246.58 733166.36,3287246.58 733189.37,3287247.26 733189.37,3287247.26 733210.27,3287247.89 733210.27,3287247.89 733231.99,3287248.49 733231.99,3287248.49 733246.30,3287248.88">
        <lane index="0" width="3.66" type="shoulder" disallow="all" />
        <lane index="1" width="3.66" />
        <lane index="2" width="3.66" />
    </edge>
    <edge id="602.0" from="node_579_end" to="node_597_start" numLanes="2" speed="13.89" type="town" shape="733374.44,3287252.59 733393.95,3287253.21 733393.95,3287253.21 733418.80,3287253.91 733418.80,3287253.91 733441.24,3287254.51 733441.24,3287254.51 733468.72,3287255.28 733468.72,3287255.28 733491.36,3287255.92 733491.36,3287255.92 733506.51,3287256.35 733506.51,3287256.35 733513.96,3287256.57">
        <lane index="0" width="3.66" />
        <lane index="1" width="3.66" />
    </edge>
    <edge id="603.0" from="node_576_end" to="node_599_start" numLanes="4" speed="13.89" type="town" shape="737549.32,3287167.53 737556.34,3287166.79 737556.34,3287166.79 737563.53,3287166.04">
        <lane index="0" width="3.66" type="shoulder" disallow="all" />
        <lane index="1" width="3.66" />
        <lane index="2" width="3.66" />
        <lane index="3" width="3.66" />
    </edge>
    <edge id="604.0" from="junction_93" to="node_604_end" numLanes="3" speed="13.89" type="town" shape="737749.76,3287164.21 737759.33,3287165.11 737759.33,3287165.11 737770.02,3287166.41 737770.02,3287166.41 737779.76,3287167.70 737779.76,3287167.70 737792.65,3287169.53 737792.65,3287169.53 737805.47,3287171.51 737805.47,3287171.51 737818.71,3287173.68 737818.71,3287173.68 737830.61,3287175.84 737830.61,3287175.84 737843.83,3287178.37 737843.83,3287178.37 737850.06,3287179.61 737850.06,3287179.61 737859.80,3287181.66 737859.80,3287181.66 737868.58,3287183.65 737868.58,3287183.65 737878.14,3287185.88 737878.14,3287185.88 737889.24,3287188.59 737889.24,3287188.59 737896.66,3287190.48 737896.66,3287190.48 737899.29,3287191.20 737899.29,3287191.20 737911.06,3287194.44 737911.06,3287194.44 737925.84,3287198.73 737925.84,3287198.73 737939.09,3287202.83 737939.09,3287202.83 737950.65,3287206.56 737950.65,3287206.56 737963.18,3287210.75 737963.18,3287210.75 737975.47,3287215.08 737975.47,3287215.08 737986.88,3287219.31">
        <lane index="0" width="3.66" type="shoulder" disallow="all" />
        <lane index="1" width="3.66" />
        <lane index="2" width="3.66" />
    </edge>
    <edge id="609.0" from="node_609_start" to="node_584_start" numLanes="5" speed="13.89" type="town" shape="736698.79,3287270.44 736707.84,3287269.30 736707.84,3287269.30 736729.85,3287266.74 736729.85,3287266.74 736746.55,3287264.78 736746.55,3287264.78 736759.11,3287263.35">
        <lane index="0" width="3.66" type="shoulder" disallow="all" />
        <lane index="1" width="3.66" />
        <lane index="2" width="3.66" />
        <lane index="3" width="3.66" />
        <lane index="4" width="3.66" type="shoulder" disallow="all" />
    </edge>
    <edge id="611.0" from="node_587_end" to="node_609_start" numLanes="5" speed="13.89" type="town" shape="736684.77,3287272.22 736698.79,3287270.44">
        <lane index="0" width="3.66" type="shoulder" disallow="all" />
        <lane index="1" width="3.66" />
        <lane index="2" width="3.66" />
        <lane index="3" width="3.66" />
        <lane index="4" width="3.66" type="shoulder" disallow="all" />
    </edge>
    <edge id="612.0" from="node_612_start" to="node_612_end" numLanes="1" speed="13.89" type="town" shape="732818.78,3287222.99 732827.99,3287222.71 732827.99,3287222.71 732843.93,3287222.23 732843.93,3287222.23 732853.91,3287221.94 732853.91,3287221.94 732867.03,3287221.58 732867.03,3287221.58 732881.30,3287221.34 732881.30,3287221.34 732890.41,3287221.09 732890.41,3287221.09 732901.79,3287219.68 732901.79,3287219.68 732913.26,3287217.11 732913.26,3287217.11 732920.86,3287214.69 732920.86,3287214.69 732927.65,3287212.21 732927.65,3287212.21 732935.54,3287207.87 732935.54,3287207.87 732942.37,3287203.55 732942.37,3287203.55 732948.82,3287198.77 732948.82,3287198.77 732952.79,3287195.41 732952.79,3287195.41 732956.68,3287191.66 732956.68,3287191.66 732963.64,3287183.05">
        <lane index="0" width="3.66" />
    </edge>
    <edge id="615.0" from="node_615_start" to="node_591_start" numLanes="3" speed="13.89" type="town" shape="732818.94,3287236.73 732846.63,3287237.49 732846.63,3287237.49 732875.24,3287238.32 732875.24,3287238.32 732900.38,3287239.05 732900.38,3287239.05 732919.16,3287239.61 732919.16,3287239.61 732940.46,3287240.21 732940.46,3287240.21 732964.36,3287240.84 732964.36,3287240.84 732988.89,3287241.48 732988.89,3287241.48 733013.96,3287242.19 733013.96,3287242.19 733023.58,3287242.47">
        <lane index="0" width="3.66" type="shoulder" disallow="all" />
        <lane index="1" width="3.66" />
        <lane index="2" width="3.66" />
    </edge>
    <edge id="618.0" from="node_618_start" to="node_618_end" numLanes="3" speed="13.89" type="town" shape="738339.67,3287354.73 738342.69,3287355.92 738342.69,3287355.92 738362.47,3287363.82 738362.47,3287363.82 738375.62,3287369.22 738375.62,3287369.22 738391.12,3287375.82 738391.12,3287375.82 738403.61,3287381.34 738403.61,3287381.34 738413.42,3287385.90 738413.42,3287385.90 738425.42,3287391.63 738425.42,3287391.63 738435.52,3287396.69">
        <lane index="0" width="3.66" />
        <lane index="1" width="3.66" />
        <lane index="2" width="3.66" />
    </edge>
    <edge id="619.0" from="node_618_end" to="node_619_end" numLanes="4" speed="13.89" type="town" shape="738435.52,3287396.69 738437.20,3287397.53 738437.20,3287397.53 738442.91,3287400.42 738442.91,3287400.42 738452.21,3287405.30 738452.21,3287405.30 738464.27,3287412.01 738464.27,3287412.01 738471.94,3287416.52 738471.94,3287416.52 738481.38,3287422.29 738481.38,3287422.29 738491.51,3287428.68 738491.51,3287428.68 738501.01,3287434.94">
        <lane index="0" width="3.66" type="shoulder" disallow="all" />
        <lane index="1" width="3.66" />
        <lane index="2" width="3.66" />
        <lane index="3" width="3.66" />
    </edge>
    <edge id="621.0" from="node_621_start" to="node_621_end" numLanes="3" speed="13.89" type="town" shape="738042.40,3287240.05 738043.62,3287240.51 738043.62,3287240.51 738061.10,3287247.22 738061.10,3287247.22 738080.68,3287254.77 738080.68,3287254.77 738085.79,3287256.73">
        <lane index="0" width="3.66" type="shoulder" disallow="all" />
        <lane index="1" width="3.66" />
        <lane index="2" width="3.66" />
    </edge>
    <edge id="622.0" from="node_622_start" to="node_622_end" numLanes="3" speed="13.89" type="town" shape="738571.93,3287490.05 738580.22,3287497.11 738580.22,3287497.11 738592.12,3287507.34 738592.12,3287507.34 738599.94,3287513.97 738599.94,3287513.97 738606.74,3287519.93">
        <lane index="0" width="3.66" type="shoulder" disallow="all" />
        <lane index="1" width="3.66" />
        <lane index="2" width="3.66" />
    </edge>
    <edge id="623.0" from="node_623_start" to="node_623_end" numLanes="3" speed="13.89" type="town" shape="739762.61,3288263.13 739767.00,3288265.13 739767.00,3288265.13 739789.04,3288275.09 739789.04,3288275.09 739807.72,3288283.53">
        <lane index="0" width="3.66" type="shoulder" disallow="all" />
        <lane index="1" width="3.66" />
        <lane index="2" width="3.66" />
    </edge>
    <edge id="624.0" from="node_624_start" to="junction_95" numLanes="3" speed="13.89" type="town" shape="740458.05,3288538.82 740459.67,3288539.40 740459.67,3288539.40 740488.48,3288549.52 740488.48,3288549.52 740513.74,3288558.78 740513.74,3288558.78 740536.22,3288567.58 740536.22,3288567.58 740544.12,3288570.78 740544.12,3288570.78 740556.59,3288575.98 740556.59,3288575.98 740568.41,3288581.17 740568.41,3288581.17 740584.21,3288588.39 740584.21,3288588.39 740601.80,3288596.85 740601.80,3288596.85 740615.78,3288604.11 740615.78,3288604.11 740625.42,3288609.30 740625.42,3288609.30 740637.72,3288616.30 740637.72,3288616.30 740649.99,3288623.67 740649.99,3288623.67 740656.69,3288627.86 740656.69,3288627.86 740666.07,3288633.83 740666.07,3288633.83 740673.46,3288638.65 740673.46,3288638.65 740680.75,3288643.49 740680.75,3288643.49 740688.73,3288648.96 740688.73,3288648.96 740698.95,3288656.22 740698.95,3288656.22 740708.45,3288663.13 740708.45,3288663.13 740718.64,3288670.67 740718.64,3288670.67 740729.66,3288678.86 740729.66,3288678.86 740747.10,3288691.96 740747.10,3288691.96 740760.58,3288702.19 740760.58,3288702.19 740773.90,3288712.26 740773.90,3288712.26 740783.52,3288719.63 740783.52,3288719.63 740796.50,3288729.56 740796.50,3288729.56 740809.83,3288739.73 740809.83,3288739.73 740827.64,3288753.30 740827.64,3288753.30 740842.56,3288764.61 740842.56,3288764.61 740854.24,3288773.55 740854.24,3288773.55 740865.32,3288782.03 740865.32,3288782.03 740880.43,3288793.57 740880.43,3288793.57 740893.85,3288803.75 740893.85,3288803.75 740900.09,3288808.54 740900.09,3288808.54 740916.73,3288821.18 740916.73,3288821.18 740933.82,3288834.23 740933.82,3288834.23 740951.33,3288847.60 740951.33,3288847.60 740973.45,3288864.49 740973.45,3288864.49 740999.64,3288884.54 740999.64,3288884.54 741022.26,3288901.73 741022.26,3288901.73 741043.90,3288918.24 741043.90,3288918.24 741065.06,3288934.38">
        <lane index="0" width="3.66" type="shoulder" disallow="all" />
        <lane index="1" width="3.66" />
        <lane index="2" width="3.66" />
    </edge>
    <edge id="627.0" from="node_627_start" to="node_627_end" numLanes="3" speed="13.89" type="town" shape="738978.60,3287850.34 738980.51,3287852.05 738980.51,3287852.05 739001.93,3287871.16 739001.93,3287871.16 739027.36,3287893.15 739027.36,3287893.15 739041.52,3287905.11 739041.52,3287905.11 739056.50,3287917.29 739056.50,3287917.29 739069.41,3287927.47 739069.41,3287927.47 739078.97,3287934.61 739078.97,3287934.61 739085.61,3287939.45 739085.61,3287939.45 739095.62,3287946.46 739095.62,3287946.46 739108.14,3287955.01 739108.14,3287955.01 739121.66,3287963.76 739121.66,3287963.76 739131.86,3287970.12 739131.86,3287970.12 739143.72,3287977.13 739143.72,3287977.13 739157.91,3287985.05 739157.91,3287985.05 739174.24,3287993.77 739174.24,3287993.77 739184.76,3287999.18 739184.76,3287999.18 739198.14,3288005.79 739198.14,3288005.79 739212.57,3288012.62 739212.57,3288012.62 739227.80,3288019.67 739227.80,3288019.67 739245.42,3288027.87 739245.42,3288027.87 739264.21,3288036.39 739264.21,3288036.39 739282.23,3288044.57 739282.23,3288044.57 739307.52,3288055.98 739307.52,3288055.98 739329.42,3288065.87 739329.42,3288065.87 739338.50,3288069.95">
        <lane index="0" width="3.66" type="shoulder" disallow="all" />
        <lane index="1" width="3.66" />
        <lane index="2" width="3.66" />
    </edge>
    <edge id="629.0" from="node_621_end" to="junction_38" numLanes="3" speed="13.89" type="town" shape="738085.79,3287256.73 738089.88,3287258.31 738089.88,3287258.31 738101.89,3287262.96 738101.89,3287262.96 738115.55,3287268.24 738115.55,3287268.24 738132.58,3287274.80 738132.58,3287274.80 738146.04,3287280.04 738146.04,3287280.04 738166.12,3287287.81 738166.12,3287287.81 738185.34,3287295.19 738185.34,3287295.19 738195.20,3287299.00 738195.20,3287299.00 738197.08,3287299.73">
        <lane index="0" width="3.66" type="shoulder" disallow="all" />
        <lane index="1" width="3.66" />
        <lane index="2" width="3.66" />
    </edge>
    <edge id="630.0" from="node_604_end" to="node_621_start" numLanes="3" speed="13.89" type="town" shape="737986.88,3287219.31 738001.99,3287224.92 738001.99,3287224.92 738015.63,3287230.01 738015.63,3287230.01 738033.20,3287236.57 738033.20,3287236.57 738042.40,3287240.05">
        <lane index="0" width="3.66" type="shoulder" disallow="all" />
        <lane index="1" width="3.66" />
        <lane index="2" width="3.66" />
    </edge>
    <edge id="631.0" from="node_619_end" to="node_622_start" numLanes="2" speed="13.89" type="town" shape="738505.04,3287429.40 738535.51,3287453.22 738535.51,3287453.22 738546.12,3287461.97 738546.12,3287461.97 738556.71,3287470.98 738556.71,3287470.98 738574.46,3287487.18">
        <lane index="0" width="3.66" type="shoulder" disallow="all" />
        <lane index="1" width="3.66" />
    </edge>
    <edge id="635.0" from="node_635_start" to="node_635_end" numLanes="3" speed="13.89" type="town" shape="739392.91,3288094.40 739402.66,3288098.79 739402.66,3288098.79 739419.19,3288106.20 739419.19,3288106.20 739441.94,3288116.57 739441.94,3288116.57 739459.42,3288124.54 739459.42,3288124.54 739480.43,3288134.07 739480.43,3288134.07 739499.11,3288142.57 739499.11,3288142.57 739517.96,3288151.12 739517.96,3288151.12 739536.03,3288159.29 739536.03,3288159.29 739554.75,3288167.86">
        <lane index="0" width="3.66" type="shoulder" disallow="all" />
        <lane index="1" width="3.66" />
        <lane index="2" width="3.66" />
    </edge>
    <edge id="636.0" from="node_636_start" to="node_627_start" numLanes="3" speed="13.89" type="town" shape="738643.17,3287552.31 738645.21,3287554.13 738645.21,3287554.13 738663.21,3287570.13 738663.21,3287570.13 738681.90,3287586.77 738681.90,3287586.77 738703.05,3287605.49 738703.05,3287605.49 738731.02,3287630.33 738731.02,3287630.33 738756.75,3287653.15 738756.75,3287653.15 738782.41,3287675.96 738782.41,3287675.96 738806.36,3287697.13 738806.36,3287697.13 738834.14,3287721.75 738834.14,3287721.75 738855.92,3287741.14 738855.92,3287741.14 738877.67,3287760.42 738877.67,3287760.42 738900.07,3287780.30 738900.07,3287780.30 738921.23,3287799.06 738921.23,3287799.06 738946.34,3287821.49 738946.34,3287821.49 738961.27,3287834.91 738961.27,3287834.91 738978.60,3287850.34">
        <lane index="0" width="3.66" type="shoulder" disallow="all" />
        <lane index="1" width="3.66" />
        <lane index="2" width="3.66" />
    </edge>
    <edge id="638.0" from="node_627_end" to="node_635_start" numLanes="3" speed="13.89" type="town" shape="739338.50,3288069.95 739347.62,3288074.04 739347.62,3288074.04 739364.68,3288081.70 739364.68,3288081.70 739383.68,3288090.24 739383.68,3288090.24 739392.91,3288094.40">
        <lane index="0" width="3.66" type="shoulder" disallow="all" />
        <lane index="1" width="3.66" />
        <lane index="2" width="3.66" />
    </edge>