<?xml version="1.0" encoding="UTF-8"?>

<!-- generated on 2025-10-19 17:35:18 by Eclipse SUMO netconvert Version 1.23.1
<netconvertConfiguration xmlns:xsi="http://www.w3.org/2001/XMLSchema-instance" xsi:noNamespaceSchemaLocation="http://sumo.dlr.de/xsd/netconvertConfiguration.xsd">

    <input>
        <node-files value="/home/sdai/harry/TeraSim/jupiter/eb/jupiter_eb_tiles/tile_0108/tile_0108.nod.xml"/>
        <edge-files value="/home/sdai/harry/TeraSim/jupiter/eb/jupiter_eb_tiles/tile_0108/tile_0108.edg.xml"/>
        <connection-files value="/home/sdai/harry/TeraSim/jupiter/eb/jupiter_eb_tiles/tile_0108/tile_0108.con.xml"/>
    </input>

    <output>
        <output-file value="/home/sdai/harry/TeraSim/jupiter/eb/jupiter_eb_tiles/tile_0108/tile_0108.net.xml"/>
        <output.street-names value="true"/>
        <output.original-names value="true"/>
    </output>

    <processing>
        <geometry.remove value="false"/>
        <geometry.min-dist value="0.5"/>
        <edges.join value="false"/>
    </processing>

    <junctions>
        <no-internal-links value="false"/>
        <no-turnarounds value="true"/>
        <junctions.join value="true"/>
        <junctions.join-dist value="10"/>
        <junctions.corner-detail value="5"/>
        <junctions.internal-link-detail value="5"/>
        <junctions.limit-turn-speed value="5.5"/>
        <rectangular-lane-cut value="true"/>
        <check-lane-foes.all value="true"/>
    </junctions>

</netconvertConfiguration>
-->

<net version="1.20" junctionCornerDetail="5" junctionLinkDetail="5" rectangularLaneCut="true" limitTurnSpeed="5.50" checkLaneFoesAll="1" xmlns:xsi="http://www.w3.org/2001/XMLSchema-instance" xsi:noNamespaceSchemaLocation="http://sumo.dlr.de/xsd/net_file.xsd">

    <location netOffset="-732689.37,-3287140.95" convBoundary="0.00,0.00,8375.69,1793.43" origBoundary="0.00,0.00,741065.06,3288934.38" projParameter="!"/>

    <edge id=":junction_114_0" function="internal">
        <lane id=":junction_114_0_0" index="0" speed="13.89" length="26.75" width="3.66" shape="5414.21,25.09 5411.78,32.40 5410.11,39.79 5409.29,46.36 5409.44,51.21"/>
    </edge>
    <edge id=":junction_35_0" function="internal">
        <lane id=":junction_35_0_0" index="0" speed="13.89" length="103.60" width="3.66" shape="557.68,93.95 573.80,95.40 605.56,97.98 639.21,100.51 660.98,101.84"/>
    </edge>
    <edge id=":junction_35_1" function="internal">
        <lane id=":junction_35_1_0" index="0" speed="13.89" length="103.83" width="3.66" shape="557.08,102.44 660.87,105.49"/>
        <lane id=":junction_35_1_1" index="1" speed="13.89" length="103.83" width="3.66" shape="556.98,106.10 660.76,109.15"/>
    </edge>
    <edge id=":junction_37_0" function="internal">
        <lane id=":junction_37_0_0" index="0" disallow="all" speed="13.89" length="88.60" width="3.66" shape="2767.94,147.35 2783.97,152.01 2806.70,159.94 2831.33,167.51 2853.10,171.10"/>
    </edge>
    <edge id=":junction_37_1" function="internal">
        <lane id=":junction_37_1_0" index="0" speed="13.89" length="85.98" width="3.66" shape="2767.23,165.43 2853.18,167.44"/>
        <lane id=":junction_37_1_1" index="1" speed="13.89" length="85.98" width="3.66" shape="2767.14,169.09 2853.10,171.10"/>
    </edge>
    <edge id=":junction_38_0" function="internal">
        <lane id=":junction_38_0_0" index="0" speed="13.89" length="139.57" width="3.66" shape="5444.63,100.34 5462.62,112.64 5499.86,136.59 5539.09,160.87 5563.00,174.17"/>
    </edge>
    <edge id=":junction_38_1" function="internal">
        <lane id=":junction_38_1_0" index="0" speed="13.89" length="57.12" width="3.66" shape="5509.70,153.66 5563.00,174.17"/>
        <lane id=":junction_38_1_1" index="1" speed="13.89" length="57.12" width="3.66" shape="5508.37,157.08 5561.69,177.58"/>
    </edge>
    <edge id=":junction_38_3" function="internal">
        <lane id=":junction_38_3_0" index="0" speed="13.89" length="143.17" width="3.66" shape="5441.19,97.75 5460.15,109.66 5499.01,133.35 5539.73,157.50 5564.31,170.75"/>
    </edge>
    <edge id=":junction_38_4" function="internal">
        <lane id=":junction_38_4_0" index="0" speed="13.89" length="139.79" width="3.66" shape="5444.45,100.17 5462.65,112.30 5499.94,136.33 5539.12,160.78 5563.00,174.17"/>
    </edge>
    <edge id=":junction_56_0" function="internal">
        <lane id=":junction_56_0_0" index="0" speed="13.89" length="44.88" width="3.66" shape="5360.71,59.26 5404.08,71.51"/>
        <lane id=":junction_56_0_1" index="1" speed="13.89" length="44.88" width="3.66" shape="5360.71,59.26 5402.61,74.86"/>
    </edge>
    <edge id=":junction_56_2" function="internal">
        <lane id=":junction_56_2_0" index="0" speed="11.65" length="32.10" width="3.66" shape="5378.65,89.51 5383.29,80.53 5388.82,75.10 5395.26,73.20 5402.61,74.86"/>
    </edge>
    <edge id=":junction_57_0" function="internal">
        <lane id=":junction_57_0_0" index="0" speed="13.89" length="28.76" width="3.66" shape="5412.38,172.32 5385.17,163.04"/>
    </edge>
    <edge id=":junction_93_0" function="internal">
        <lane id=":junction_93_0_0" index="0" disallow="all" speed="13.89" length="77.45" width="3.66" shape="4983.12,6.09 5060.42,4.07"/>
        <lane id=":junction_93_0_1" index="1" speed="13.89" length="77.45" width="3.66" shape="4983.09,9.75 5060.63,7.72"/>
    </edge>
    <edge id=":junction_93_2" function="internal">
        <lane id=":junction_93_2_0" index="0" speed="13.89" length="77.80" width="3.66" shape="4983.07,13.41 5060.90,17.80"/>
        <lane id=":junction_93_2_1" index="1" speed="13.89" length="77.80" width="3.66" shape="4983.04,17.07 5060.56,21.44"/>
    </edge>
    <edge id=":node_0_start_0" function="internal">
        <lane id=":node_0_start_0_0" index="0" speed="13.89" length="0.15" width="3.66" shape="5535.08,196.17 5534.93,196.14"/>
    </edge>
    <edge id=":node_573_end_0" function="internal">
        <lane id=":node_573_end_0_0" index="0" speed="13.89" length="0.30" width="3.66" shape="3414.39,175.43 3414.69,175.43"/>
        <lane id=":node_573_end_0_1" index="1" speed="13.89" length="0.30" width="3.66" shape="3414.42,179.09 3414.72,179.09"/>
        <lane id=":node_573_end_0_2" index="2" speed="13.89" length="0.30" width="3.66" shape="3414.46,182.75 3414.76,182.75"/>
    </edge>
    <edge id=":node_573_start_0" function="internal">
        <lane id=":node_573_start_0_0" index="0" speed="13.89" length="0.30" width="3.66" shape="3380.90,175.75 3381.20,175.75"/>
        <lane id=":node_573_start_0_1" index="1" speed="13.89" length="0.30" width="3.66" shape="3380.93,179.41 3381.23,179.41"/>
        <lane id=":node_573_start_0_2" index="2" speed="13.89" length="0.30" width="3.66" shape="3380.97,183.07 3381.27,183.07"/>
    </edge>
    <edge id=":node_576_start_0" function="internal">
        <lane id=":node_576_start_0_0" index="0" speed="13.89" length="0.13" width="3.66" shape="4117.33,103.88 4117.52,103.86"/>
        <lane id=":node_576_start_0_1" index="1" speed="13.89" length="0.13" width="3.66" shape="4117.76,107.51 4117.89,107.50"/>
        <lane id=":node_576_start_0_2" index="2" speed="13.89" length="0.13" width="3.66" shape="4118.18,111.15 4118.26,111.14"/>
    </edge>
    <edge id=":node_578_start_0" function="internal">
        <lane id=":node_578_start_0_0" index="0" speed="13.89" length="0.29" width="3.66" shape="4932.66,11.13 4933.00,11.11"/>
        <lane id=":node_578_start_0_1" index="1" speed="13.89" length="0.29" width="3.66" shape="4932.90,14.78 4933.19,14.76"/>
        <lane id=":node_578_start_0_2" index="2" speed="13.89" length="0.29" width="3.66" shape="4933.14,18.43 4933.38,18.42"/>
    </edge>
    <edge id=":node_579_end_0" function="internal">
        <lane id=":node_579_end_0_0" index="0" speed="13.89" length="3.32" width="3.66" shape="683.94,102.46 687.25,102.54"/>
    </edge>
    <edge id=":node_579_end_1" function="internal">
        <lane id=":node_579_end_1_0" index="0" speed="13.89" length="2.98" width="3.66" shape="683.85,106.12 686.84,106.21"/>
        <lane id=":node_579_end_1_1" index="1" speed="13.89" length="2.98" width="3.66" shape="683.76,109.78 686.72,109.86"/>
    </edge>
    <edge id=":node_580_end_0" function="internal">
        <lane id=":node_580_end_0_0" index="0" speed="13.89" length="0.30" width="3.66" shape="3613.69,163.21 3613.99,163.18"/>
        <lane id=":node_580_end_0_1" index="1" speed="13.89" length="0.30" width="3.66" shape="3614.13,166.85 3614.43,166.81"/>
        <lane id=":node_580_end_0_2" index="2" speed="13.89" length="0.30" width="3.66" shape="3614.57,170.48 3614.86,170.44"/>
    </edge>
    <edge id=":node_580_start_0" function="internal">
        <lane id=":node_580_start_0_0" index="0" speed="13.89" length="0.61" width="3.66" shape="3599.00,164.97 3599.49,164.92"/>
        <lane id=":node_580_start_0_1" index="1" speed="13.89" length="0.61" width="3.66" shape="3599.32,168.62 3599.92,168.55"/>
        <lane id=":node_580_start_0_2" index="2" speed="13.89" length="0.61" width="3.66" shape="3599.63,172.26 3600.36,172.19"/>
    </edge>
    <edge id=":node_582_end_0" function="internal">
        <lane id=":node_582_end_0_0" index="0" speed="13.89" length="3.52" width="3.66" shape="3109.44,165.50 3110.46,165.65 3111.12,165.95 3111.78,166.26 3112.80,166.44"/>
    </edge>
    <edge id=":node_582_end_1" function="internal">
        <lane id=":node_582_end_1_0" index="0" speed="13.89" length="3.00" width="3.66" shape="3109.35,169.16 3112.35,169.23"/>
        <lane id=":node_582_end_1_1" index="1" speed="13.89" length="3.00" width="3.66" shape="3109.25,172.82 3112.25,172.89"/>
        <lane id=":node_582_end_1_2" index="2" speed="13.89" length="3.00" width="3.66" shape="3109.16,176.47 3112.16,176.55"/>
    </edge>
    <edge id=":node_584_start_0" function="internal">
        <lane id=":node_584_start_0_0" index="0" speed="13.89" length="0.30" width="3.66" shape="4068.10,109.70 4068.36,109.67"/>
        <lane id=":node_584_start_0_1" index="1" speed="13.89" length="0.30" width="3.66" shape="4068.51,113.33 4068.81,113.30"/>
        <lane id=":node_584_start_0_2" index="2" speed="13.89" length="0.30" width="3.66" shape="4068.93,116.97 4069.26,116.93"/>
    </edge>
    <edge id=":node_586_start_0" function="internal">
        <lane id=":node_586_start_0_0" index="0" speed="13.89" length="8.06" width="3.66" shape="3220.52,172.64 3228.58,172.44"/>
    </edge>
    <edge id=":node_586_start_1" function="internal">
        <lane id=":node_586_start_1_0" index="0" speed="13.89" length="8.00" width="3.66" shape="3220.59,172.21 3228.58,172.44"/>
        <lane id=":node_586_start_1_1" index="1" speed="13.89" length="8.00" width="3.66" shape="3220.48,175.87 3228.48,176.10"/>
        <lane id=":node_586_start_1_2" index="2" speed="13.89" length="8.00" width="3.66" shape="3220.38,179.53 3228.37,179.76"/>
    </edge>
    <edge id=":node_587_end_0" function="internal">
        <lane id=":node_587_end_0_0" index="0" speed="13.89" length="0.29" width="3.66" shape="3993.72,118.57 3993.98,118.54"/>
        <lane id=":node_587_end_0_1" index="1" speed="13.89" length="0.29" width="3.66" shape="3994.15,122.21 3994.44,122.17"/>
        <lane id=":node_587_end_0_2" index="2" speed="13.89" length="0.29" width="3.66" shape="3994.57,125.84 3994.90,125.80"/>
    </edge>
    <edge id=":node_591_end_0" function="internal">
        <lane id=":node_591_end_0_0" index="0" speed="13.89" length="0.30" width="3.66" shape="348.14,96.45 348.43,96.46"/>
        <lane id=":node_591_end_0_1" index="1" speed="13.89" length="0.30" width="3.66" shape="348.02,100.11 348.33,100.12"/>
    </edge>
    <edge id=":node_591_start_0" function="internal">
        <lane id=":node_591_start_0_0" index="0" speed="13.89" length="0.30" width="3.66" shape="334.22,96.03 334.52,96.04"/>
        <lane id=":node_591_start_0_1" index="1" speed="13.89" length="0.30" width="3.66" shape="334.12,99.69 334.41,99.70"/>
    </edge>
    <edge id=":node_597_start_0" function="internal">
        <lane id=":node_597_start_0_0" index="0" speed="13.89" length="8.04" width="3.66" shape="820.71,109.90 828.74,110.25"/>
    </edge>
    <edge id=":node_597_start_1" function="internal">
        <lane id=":node_597_start_1_0" index="0" speed="13.89" length="8.00" width="3.66" shape="820.75,110.02 828.74,110.25"/>
        <lane id=":node_597_start_1_1" index="1" speed="13.89" length="8.00" width="3.66" shape="820.64,113.67 828.64,113.91"/>
    </edge>
    <edge id=":node_598_start_0" function="internal">
        <lane id=":node_598_start_0_0" index="0" speed="13.89" length="0.10" width="3.66" shape="4887.63,14.52 4887.80,14.50"/>
        <lane id=":node_598_start_0_1" index="1" speed="13.89" length="0.10" width="3.66" shape="4888.00,18.16 4888.10,18.15"/>
        <lane id=":node_598_start_0_2" index="2" speed="13.89" length="0.10" width="3.66" shape="4888.37,21.80 4888.40,21.80"/>
    </edge>
    <edge id=":node_599_start_0" function="internal">
        <lane id=":node_599_start_0_0" index="0" speed="13.89" length="0.30" width="3.66" shape="4873.06,16.01 4873.36,15.98"/>
        <lane id=":node_599_start_0_1" index="1" speed="13.89" length="0.30" width="3.66" shape="4873.44,19.65 4873.74,19.62"/>
        <lane id=":node_599_start_0_2" index="2" speed="13.89" length="0.30" width="3.66" shape="4873.82,23.29 4874.12,23.26"/>
    </edge>
    <edge id=":node_604_end_0" function="internal">
        <lane id=":node_604_end_0_0" index="0" speed="13.89" length="0.30" width="3.66" shape="5299.28,73.16 5299.56,73.27"/>
        <lane id=":node_604_end_0_1" index="1" speed="13.89" length="0.30" width="3.66" shape="5298.01,76.59 5298.29,76.70"/>
    </edge>
    <edge id=":node_609_start_0" function="internal">
        <lane id=":node_609_start_0_0" index="0" speed="13.89" length="0.30" width="3.66" shape="4007.66,116.80 4007.96,116.76"/>
        <lane id=":node_609_start_0_1" index="1" speed="13.89" length="0.30" width="3.66" shape="4008.12,120.43 4008.42,120.40"/>
        <lane id=":node_609_start_0_2" index="2" speed="13.89" length="0.30" width="3.66" shape="4008.58,124.06 4008.88,124.03"/>
    </edge>
    <edge id=":node_612_start_0" function="internal">
        <lane id=":node_612_start_0_0" index="0" speed="13.89" length="0.29" width="3.66" shape="129.22,80.22 129.51,80.21"/>
    </edge>
    <edge id=":node_615_start_0" function="internal">
        <lane id=":node_615_start_0_0" index="0" speed="13.89" length="3.00" width="3.66" shape="128.22,90.25 131.22,90.34"/>
        <lane id=":node_615_start_0_1" index="1" speed="13.89" length="3.00" width="3.66" shape="128.12,93.91 131.12,93.99"/>
    </edge>
    <edge id=":node_618_end_0" function="internal">
        <lane id=":node_618_end_0_0" index="0" speed="13.89" length="3.00" width="3.66" shape="5748.91,246.89 5751.59,248.23"/>
        <lane id=":node_618_end_0_1" index="1" speed="13.89" length="3.00" width="3.66" shape="5747.27,250.16 5749.95,251.50"/>
        <lane id=":node_618_end_0_2" index="2" speed="13.89" length="3.00" width="3.66" shape="5745.63,253.43 5748.31,254.78"/>
    </edge>
    <edge id=":node_618_start_0" function="internal">
        <lane id=":node_618_start_0_0" index="0" speed="13.89" length="0.10" width="3.66" shape="5653.66,205.27 5653.65,205.27"/>
        <lane id=":node_618_start_0_1" index="1" speed="13.89" length="0.10" width="3.66" shape="5652.31,208.67 5652.31,208.67"/>
        <lane id=":node_618_start_0_2" index="2" speed="13.89" length="0.10" width="3.66" shape="5650.97,212.08 5650.97,212.08"/>
    </edge>
    <edge id=":node_619_end_0" function="internal">
        <lane id=":node_619_end_0_0" index="0" speed="13.89" length="3.59" width="3.66" shape="5815.57,285.63 5816.41,286.27 5816.91,286.81 5817.38,287.38 5818.17,288.09"/>
    </edge>
    <edge id=":node_619_end_1" function="internal">
        <lane id=":node_619_end_1_0" index="0" speed="13.89" length="2.91" width="3.66" shape="5813.56,288.68 5816.00,290.33"/>
        <lane id=":node_619_end_1_1" index="1" speed="13.89" length="2.91" width="3.66" shape="5811.55,291.74 5813.93,293.35"/>
    </edge>
    <edge id=":node_621_end_0" function="internal">
        <lane id=":node_621_end_0_0" index="0" speed="13.89" length="0.30" width="3.66" shape="5398.25,110.60 5398.53,110.71"/>
        <lane id=":node_621_end_0_1" index="1" speed="13.89" length="0.30" width="3.66" shape="5396.94,114.02 5397.22,114.13"/>
    </edge>
    <edge id=":node_621_start_0" function="internal">
        <lane id=":node_621_start_0_0" index="0" speed="13.89" length="0.30" width="3.66" shape="5354.83,93.91 5355.11,94.02"/>
        <lane id=":node_621_start_0_1" index="1" speed="13.89" length="0.30" width="3.66" shape="5353.54,97.34 5353.82,97.44"/>
    </edge>
    <edge id=":node_622_end_0" function="internal">
        <lane id=":node_622_end_0_0" index="0" speed="13.89" length="0.30" width="3.66" shape="5920.88,374.76 5921.11,374.96"/>
        <lane id=":node_622_end_0_1" index="1" speed="13.89" length="0.30" width="3.66" shape="5918.47,377.51 5918.69,377.70"/>
    </edge>
    <edge id=":node_622_start_0" function="internal">
        <lane id=":node_622_start_0_0" index="0" speed="13.89" length="8.06" width="3.66" shape="5883.22,342.05 5889.15,347.51"/>
    </edge>
    <edge id=":node_622_start_1" function="internal">
        <lane id=":node_622_start_1_0" index="0" speed="13.89" length="8.00" width="3.66" shape="5883.07,342.32 5889.15,347.51"/>
        <lane id=":node_622_start_1_1" index="1" speed="13.89" length="8.00" width="3.66" shape="5880.69,345.11 5886.78,350.29"/>
    </edge>
    <edge id=":node_623_end_0" function="internal">
        <lane id=":node_623_end_0_0" index="0" speed="13.89" length="0.30" width="3.66" shape="7120.47,1137.52 7120.74,1137.64"/>
        <lane id=":node_623_end_0_1" index="1" speed="13.89" length="0.30" width="3.66" shape="7118.96,1140.85 7119.24,1140.98"/>
    </edge>
    <edge id=":node_623_start_0" function="internal">
        <lane id=":node_623_start_0_0" index="0" speed="13.89" length="0.30" width="3.66" shape="7075.38,1117.12 7075.65,1117.25"/>
        <lane id=":node_623_start_0_1" index="1" speed="13.89" length="0.30" width="3.66" shape="7073.86,1120.45 7074.14,1120.58"/>
    </edge>
    <edge id=":node_624_start_0" function="internal">
        <lane id=":node_624_start_0_0" index="0" speed="13.89" length="0.30" width="3.66" shape="7770.38,1392.65 7770.67,1392.75"/>
        <lane id=":node_624_start_0_1" index="1" speed="13.89" length="0.30" width="3.66" shape="7769.16,1396.10 7769.43,1396.20"/>
    </edge>
    <edge id=":node_627_end_0" function="internal">
        <lane id=":node_627_end_0_0" index="0" speed="13.89" length="0.30" width="3.66" shape="6651.24,923.93 6651.51,924.05"/>
        <lane id=":node_627_end_0_1" index="1" speed="13.89" length="0.30" width="3.66" shape="6649.74,927.27 6650.02,927.39"/>
    </edge>
    <edge id=":node_627_start_0" function="internal">
        <lane id=":node_627_start_0_0" index="0" speed="13.89" length="0.30" width="3.66" shape="6292.77,705.20 6293.00,705.40"/>
        <lane id=":node_627_start_0_1" index="1" speed="13.89" length="0.30" width="3.66" shape="6290.34,707.93 6290.56,708.13"/>
    </edge>
    <edge id=":node_635_end_0" function="internal">
        <lane id=":node_635_end_0_0" index="0" speed="13.89" length="0.30" width="3.66" shape="6867.54,1021.86 6867.82,1021.99"/>
        <lane id=":node_635_end_0_1" index="1" speed="13.89" length="0.30" width="3.66" shape="6866.01,1025.19 6866.28,1025.31"/>
    </edge>
    <edge id=":node_635_start_0" function="internal">
        <lane id=":node_635_start_0_0" index="0" speed="13.89" length="0.30" width="3.66" shape="6705.66,948.39 6705.93,948.51"/>
        <lane id=":node_635_start_0_1" index="1" speed="13.89" length="0.30" width="3.66" shape="6704.15,951.72 6704.43,951.85"/>
    </edge>
    <edge id=":node_636_start_0" function="internal">
        <lane id=":node_636_start_0_0" index="0" speed="13.89" length="0.30" width="3.66" shape="5957.35,407.17 5957.57,407.37"/>
        <lane id=":node_636_start_0_1" index="1" speed="13.89" length="0.30" width="3.66" shape="5954.91,409.90 5955.13,410.10"/>
    </edge>
    <edge id=":node_639_start_0" function="internal">
        <lane id=":node_639_start_0_0" index="0" speed="13.89" length="0.10" width="3.66" shape="7021.85,1092.65 7021.85,1092.65"/>
        <lane id=":node_639_start_0_1" index="1" speed="13.89" length="0.10" width="3.66" shape="7020.34,1095.99 7020.34,1095.99"/>
    </edge>
    <edge id=":node_640_start_0" function="internal">
        <lane id=":node_640_start_0_0" index="0" speed="13.89" length="0.10" width="3.66" shape="7633.00,1343.87 7633.00,1343.87"/>
        <lane id=":node_640_start_0_1" index="1" speed="13.89" length="0.10" width="3.66" shape="7631.77,1347.32 7631.77,1347.32"/>
    </edge>
    <edge id=":node_644_end_0" function="internal">
        <lane id=":node_644_end_0_0" index="0" speed="13.89" length="0.30" width="3.66" shape="7578.45,1324.29 7578.73,1324.39"/>
        <lane id=":node_644_end_0_1" index="1" speed="13.89" length="0.30" width="3.66" shape="7577.21,1327.73 7577.49,1327.83"/>
    </edge>
    <edge id=":node_957_end_0" function="internal">
        <lane id=":node_957_end_0_0" index="0" speed="13.89" length="2.97" width="3.66" shape="5372.59,158.32 5369.82,157.27"/>
    </edge>
    <edge id=":node_957_end_1" function="internal">
        <lane id=":node_957_end_1_0" index="0" speed="13.89" length="3.04" width="3.66" shape="5372.59,158.32 5369.78,157.18"/>
    </edge>
    <edge id=":node_957_end_2" function="internal">
        <lane id=":node_957_end_2_0" index="0" speed="13.89" length="3.11" width="3.66" shape="5372.59,158.32 5369.74,157.10"/>
    </edge>
    <edge id=":node_960_start_0" function="internal">
        <lane id=":node_960_start_0_0" index="0" speed="13.89" length="2.74" width="3.66" shape="5360.02,137.55 5360.97,134.98"/>
    </edge>
    <edge id=":node_960_start_1" function="internal">
        <lane id=":node_960_start_1_0" index="0" speed="13.89" length="3.06" width="3.66" shape="5354.49,135.29 5354.48,134.41 5354.22,133.78 5354.01,133.17 5354.14,132.33"/>
    </edge>
    <edge id=":node_960_start_2" function="internal">
        <lane id=":node_960_start_2_0" index="0" speed="11.86" length="1.53" width="3.66" shape="5357.71,135.18 5357.56,133.66"/>
    </edge>
    <edge id=":node_969_end_0" function="internal">
        <lane id=":node_969_end_0_0" index="0" speed="13.89" length="3.36" width="3.66" shape="5411.70,74.85 5412.64,75.08 5413.36,75.00 5414.06,74.93 5414.99,75.21"/>
    </edge>
    <edge id=":node_969_end_1" function="internal">
        <lane id=":node_969_end_1_0" index="0" speed="13.89" length="2.84" width="3.66" shape="5410.23,78.20 5412.80,79.39"/>
    </edge>
    <edge id=":node_972_start_0" function="internal">
        <lane id=":node_972_start_0_0" index="0" speed="13.89" length="0.35" width="3.66" shape="5416.16,70.82 5416.22,70.91 5416.26,70.96 5416.30,71.02 5416.37,71.10"/>
    </edge>

    <edge id="0.0" from="node_0_start" to="junction_57" priority="-1" type="town" shape="5535.39,194.36 5531.54,193.71 5521.69,191.86 5514.95,190.63 5506.05,189.08 5499.68,188.00 5488.93,186.40 5473.18,184.39 5452.05,180.51 5441.02,178.21 5434.30,176.60 5427.18,174.75 5420.21,172.81 5412.92,170.57">
        <lane id="0.0_0" index="0" disallow="all" speed="13.89" length="125.22" width="3.66" shape="5534.32,199.75 5530.58,199.12 5520.69,197.26 5513.99,196.04 5505.12,194.49 5498.82,193.42 5488.18,191.84 5472.34,189.82 5450.99,185.90 5439.82,183.57 5432.97,181.93 5425.75,180.05 5418.67,178.08 5411.31,175.82" type="shoulder"/>
        <lane id="0.0_1" index="1" speed="13.89" length="125.22" width="3.66" shape="5534.93,196.14 5531.22,195.51 5521.36,193.66 5514.63,192.43 5505.74,190.89 5499.39,189.81 5488.68,188.21 5472.90,186.20 5451.70,182.31 5440.62,180.00 5433.86,178.38 5426.70,176.52 5419.70,174.57 5412.38,172.32"/>
    </edge>
    <edge id="573.0" from="node_573_start" to="node_573_end" priority="-1" type="town">
        <lane id="573.0_0" index="0" disallow="all" speed="13.89" length="33.19" width="3.66" shape="3381.16,172.09 3414.35,171.77" type="shoulder"/>
        <lane id="573.0_1" index="1" speed="13.89" length="33.19" width="3.66" shape="3381.20,175.75 3414.39,175.43"/>
        <lane id="573.0_2" index="2" speed="13.89" length="33.19" width="3.66" shape="3381.23,179.41 3414.42,179.09"/>
        <lane id="573.0_3" index="3" speed="13.89" length="33.19" width="3.66" shape="3381.27,183.07 3414.46,182.75"/>
        <lane id="573.0_4" index="4" disallow="all" speed="13.89" length="33.19" width="3.66" shape="3381.30,186.73 3414.49,186.41" type="shoulder"/>
    </edge>
    <edge id="574.0" from="junction_94" to="node_615_start" priority="-1" type="town" shape="0.20,92.29 9.99,92.58 29.99,93.12 50.31,93.68 73.69,94.27 107.10,95.18 129.57,95.78">
        <lane id="574.0_0" index="0" speed="13.89" length="128.12" width="3.66" shape="0.15,86.80 10.14,87.09 30.14,87.63 50.45,88.19 73.83,88.78 107.25,89.69 128.22,90.25"/>
        <lane id="574.0_1" index="1" speed="13.89" length="128.12" width="3.66" shape="0.05,90.46 10.04,90.75 30.04,91.29 50.36,91.85 73.74,92.44 107.15,93.35 128.12,93.91"/>
    </edge>
    <edge id="575.0" from="node_575_start" to="junction_35" priority="-1" type="town" shape="425.19,42.42 427.23,45.24 430.32,48.73 435.56,54.14 444.25,62.25 453.41,69.08 460.53,73.47 469.90,78.14 479.90,82.07 494.15,86.06 511.60,89.57 529.23,92.10 543.79,93.91 557.43,95.76">
        <lane id="575.0_0" index="0" speed="13.89" length="145.93" width="3.66" shape="426.67,41.35 428.66,44.10 431.66,47.49 436.84,52.84 445.42,60.85 454.44,67.57 461.42,71.87 470.64,76.47 480.48,80.33 494.58,84.28 511.91,87.77 529.47,90.29 544.03,92.10 557.68,93.95"/>
    </edge>
    <edge id="576.0" from="node_576_start" to="node_603_start" priority="-1" type="town" shape="4118.82,116.60 4125.37,115.93 4134.50,115.21 4159.95,112.17 4186.52,109.04 4210.18,106.37 4238.13,102.96 4262.10,100.03 4283.74,97.52 4312.11,94.22 4333.48,91.53 4358.60,88.73 4381.33,85.96 4413.76,82.28 4442.98,78.84 4469.41,75.67 4492.01,73.13 4518.11,69.94 4549.66,66.29 4579.45,62.65 4616.28,58.21 4646.45,54.64 4676.88,51.00 4715.20,46.46 4754.63,41.90 4792.80,37.47 4824.94,33.72 4860.17,29.52">
        <lane id="576.0_0" index="0" disallow="all" speed="13.89" length="746.38" width="3.66" shape="4117.14,100.22 4123.88,99.53 4132.88,98.82 4158.01,95.82 4184.63,92.68 4208.26,90.01 4236.13,86.61 4260.15,83.68 4281.84,81.16 4310.13,77.87 4331.54,75.18 4356.69,72.37 4379.41,69.60 4411.87,65.92 4441.04,62.49 4467.51,59.31 4490.09,56.77 4516.16,53.59 4547.71,49.94 4577.47,46.30 4614.32,41.86 4644.50,38.29 4674.93,34.65 4713.29,30.10 4752.73,25.54 4790.90,21.11 4823.01,17.37 4858.22,13.17" type="shoulder"/>
        <lane id="576.0_1" index="1" speed="13.89" length="746.38" width="3.66" shape="4117.52,103.86 4124.21,103.17 4133.24,102.46 4158.44,99.45 4185.05,96.32 4208.69,93.65 4236.58,90.25 4260.58,87.31 4282.26,84.80 4310.57,81.50 4331.97,78.81 4357.12,76.01 4379.83,73.24 4412.29,69.56 4441.47,66.12 4467.93,62.95 4490.52,60.41 4516.60,57.22 4548.15,53.57 4577.91,49.94 4614.76,45.49 4644.94,41.92 4675.37,38.28 4713.71,33.74 4753.16,29.18 4791.32,24.75 4823.44,21.00 4858.78,16.79"/>
        <lane id="576.0_2" index="2" speed="13.89" length="746.38" width="3.66" shape="4117.89,107.50 4124.54,106.82 4133.60,106.10 4158.87,103.09 4185.47,99.95 4209.11,97.28 4237.02,93.88 4261.02,90.95 4282.68,88.43 4311.01,85.14 4332.40,82.45 4357.54,79.64 4380.26,76.87 4412.71,73.19 4441.90,69.76 4468.35,66.58 4490.94,64.04 4517.03,60.86 4548.58,57.21 4578.35,53.57 4615.19,49.13 4645.37,45.56 4675.80,41.92 4714.14,37.37 4753.58,32.81 4791.74,28.38 4823.87,24.64 4859.21,20.42"/>
        <lane id="576.0_3" index="3" speed="13.89" length="746.38" width="3.66" shape="4118.26,111.14 4124.87,110.46 4133.96,109.75 4159.30,106.72 4185.89,103.59 4209.54,100.92 4237.46,97.51 4261.45,94.58 4283.11,92.07 4311.45,88.77 4332.83,86.08 4357.96,83.28 4380.69,80.51 4413.13,76.83 4442.33,73.39 4468.78,70.22 4491.37,67.68 4517.46,64.49 4549.01,60.84 4578.79,57.20 4615.63,52.76 4645.80,49.19 4676.23,45.55 4714.56,41.01 4754.00,36.45 4792.17,32.02 4824.30,28.27 4859.64,24.06"/>
        <lane id="576.0_4" index="4" disallow="all" speed="13.89" length="746.38" width="3.66" shape="4118.63,114.78 4125.20,114.11 4134.32,113.39 4159.73,110.35 4186.31,107.22 4209.97,104.55 4237.91,101.15 4261.88,98.21 4283.53,95.70 4311.89,92.41 4333.26,89.71 4358.39,86.91 4381.12,84.14 4413.55,80.46 4442.76,77.02 4469.20,73.85 4491.80,71.31 4517.89,68.12 4549.44,64.47 4579.23,60.84 4616.06,56.40 4646.23,52.82 4676.66,49.18 4714.99,44.64 4754.42,40.08 4792.59,35.65 4824.73,31.90 4859.95,27.70" type="shoulder"/>
    </edge>
    <edge id="577.0" from="node_577_start" to="junction_37" priority="-1" type="town" shape="2614.52,119.25 2648.49,130.33 2676.07,138.04 2701.34,144.19 2715.65,147.27 2730.62,150.21 2746.51,153.00 2764.20,156.00 2768.37,156.69">
        <lane id="577.0_0" index="0" disallow="all" speed="13.89" length="155.79" width="3.66" shape="2617.36,110.55 2651.14,121.57 2678.38,129.19 2703.38,135.27 2717.49,138.31 2732.29,141.22 2748.07,143.99 2765.72,146.98 2767.94,147.35" type="shoulder"/>
        <lane id="577.0_1" index="1" speed="13.89" length="155.79" width="3.66" shape="2616.22,114.03 2650.08,125.08 2677.46,132.73 2702.57,138.84 2716.76,141.89 2731.62,144.81 2747.44,147.59 2765.11,150.59 2767.34,150.96"/>
        <lane id="577.0_2" index="2" speed="13.89" length="155.79" width="3.66" shape="2615.08,117.51 2649.02,128.58 2676.53,136.27 2701.75,142.41 2716.02,145.48 2730.95,148.41 2746.82,151.20 2764.50,154.20 2766.74,154.57"/>
    </edge>
    <edge id="578.0" from="node_578_start" to="junction_93" priority="-1" type="town" shape="4933.37,20.25 4946.93,19.55 4955.75,19.18 4972.80,18.83 4983.03,18.90">