<?xml version="1.0" encoding="UTF-8"?>

<!-- generated on 2025-10-19 17:35:17 by Eclipse SUMO netconvert Version 1.23.1
<netconvertConfiguration xmlns:xsi="http://www.w3.org/2001/XMLSchema-instance" xsi:noNamespaceSchemaLocation="http://sumo.dlr.de/xsd/netconvertConfiguration.xsd">

    <input>
        <node-files value="/home/sdai/harry/TeraSim/jupiter/eb/jupiter_eb_tiles/tile_0093/tile_0093.nod.xml"/>
        <edge-files value="/home/sdai/harry/TeraSim/jupiter/eb/jupiter_eb_tiles/tile_0093/tile_0093.edg.xml"/>
        <connection-files value="/home/sdai/harry/TeraSim/jupiter/eb/jupiter_eb_tiles/tile_0093/tile_0093.con.xml"/>
    </input>

    <output>
        <output-file value="/home/sdai/harry/TeraSim/jupiter/eb/jupiter_eb_tiles/tile_0093/tile_0093.net.xml"/>
        <output.street-names value="true"/>
        <output.original-names value="true"/>
    </output>

    <processing>
        <geometry.remove value="false"/>
        <geometry.min-dist value="0.5"/>
        <edges.join value="false"/>
    </processing>

    <junctions>
        <no-internal-links value="false"/>
        <no-turnarounds value="true"/>
        <junctions.join value="true"/>
        <junctions.join-dist value="10"/>
        <junctions.corner-detail value="5"/>
        <junctions.internal-link-detail value="5"/>
        <junctions.limit-turn-speed value="5.5"/>
        <rectangular-lane-cut value="true"/>
        <check-lane-foes.all value="true"/>
    </junctions>

</netconvertConfiguration>
-->

<net version="1.20" junctionCornerDetail="5" junctionLinkDetail="5" rectangularLaneCut="true" limitTurnSpeed="5.50" checkLaneFoesAll="1" xmlns:xsi="http://www.w3.org/2001/XMLSchema-instance" xsi:noNamespaceSchemaLocation="http://sumo.dlr.de/xsd/net_file.xsd">

    <location netOffset="-708384.45,-3286162.08" convBoundary="0.00,0.00,18773.67,718.15" origBoundary="0.00,0.00,727158.12,3286880.23" projParameter="!"/>

    <edge id=":j_merge_end_32_0" function="internal">
        <lane id=":j_merge_end_32_0_0" index="0" speed="13.89" length="41.71" width="3.66" shape="106.46,503.87 144.77,487.35"/>
        <lane id=":j_merge_end_32_0_1" index="1" speed="13.89" length="41.71" width="3.66" shape="107.90,507.23 146.21,490.72"/>
    </edge>
    <edge id=":junction_33_0" function="internal">
        <lane id=":junction_33_0_0" index="0" speed="13.89" length="85.40" width="3.66" shape="6998.78,547.95 7083.75,556.48"/>
        <lane id=":junction_33_0_1" index="1" speed="13.89" length="85.40" width="3.66" shape="6998.41,551.59 7083.39,560.12"/>
    </edge>
    <edge id=":junction_91_0" function="internal">
        <lane id=":junction_91_0_0" index="0" speed="13.89" length="65.03" width="3.66" shape="6390.75,486.36 6406.49,487.37 6426.96,488.14 6445.56,488.64 6455.72,488.82"/>
    </edge>
    <edge id=":junction_91_1" function="internal">
        <lane id=":junction_91_1_0" index="0" speed="13.89" length="65.10" width="3.66" shape="6390.75,486.36 6455.52,492.85"/>
        <lane id=":junction_91_1_1" index="1" speed="13.89" length="65.10" width="3.66" shape="6390.39,490.00 6455.16,496.50"/>
    </edge>
    <edge id=":node_512_end_0" function="internal">
        <lane id=":node_512_end_0_0" index="0" speed="13.89" length="0.30" width="3.66" shape="1572.59,-0.39 1572.87,-0.36"/>
        <lane id=":node_512_end_0_1" index="1" speed="13.89" length="0.30" width="3.66" shape="1572.22,3.25 1572.53,3.28"/>
    </edge>
    <edge id=":node_512_start_0" function="internal">
        <lane id=":node_512_start_0_0" index="0" speed="13.89" length="0.10" width="3.66" shape="1080.41,85.02 1080.41,85.02"/>
        <lane id=":node_512_start_0_1" index="1" speed="13.89" length="0.10" width="3.66" shape="1081.86,88.38 1081.86,88.38"/>
    </edge>
    <edge id=":node_516_end_0" function="internal">
        <lane id=":node_516_end_0_0" index="0" speed="13.89" length="0.30" width="3.66" shape="2317.60,74.83 2317.90,74.86"/>
        <lane id=":node_516_end_0_1" index="1" speed="13.89" length="0.30" width="3.66" shape="2317.24,78.47 2317.53,78.50"/>
    </edge>
    <edge id=":node_516_start_0" function="internal">
        <lane id=":node_516_start_0_0" index="0" speed="13.89" length="0.30" width="3.66" shape="2120.47,54.87 2120.77,54.90"/>
        <lane id=":node_516_start_0_1" index="1" speed="13.89" length="0.30" width="3.66" shape="2120.12,58.51 2120.41,58.54"/>
    </edge>
    <edge id=":node_519_end_0" function="internal">
        <lane id=":node_519_end_0_0" index="0" speed="13.89" length="0.30" width="3.66" shape="1010.24,115.13 1010.52,115.01"/>
        <lane id=":node_519_end_0_1" index="1" speed="13.89" length="0.30" width="3.66" shape="1011.68,118.50 1011.95,118.38"/>
    </edge>
    <edge id=":node_519_start_0" function="internal">
        <lane id=":node_519_start_0_0" index="0" speed="13.89" length="3.00" width="3.66" shape="851.48,183.26 854.24,182.08"/>
        <lane id=":node_519_start_0_1" index="1" speed="13.89" length="3.00" width="3.66" shape="852.93,186.62 855.69,185.44"/>
    </edge>
    <edge id=":node_521_end_0" function="internal">
        <lane id=":node_521_end_0_0" index="0" speed="13.89" length="0.30" width="3.66" shape="4717.91,316.92 4718.21,316.95"/>
        <lane id=":node_521_end_0_1" index="1" speed="13.89" length="0.30" width="3.66" shape="4717.54,320.56 4717.84,320.59"/>
    </edge>
    <edge id=":node_531_end_0" function="internal">
        <lane id=":node_531_end_0_0" index="0" speed="13.89" length="3.00" width="3.66" shape="732.94,234.25 735.70,233.07"/>
        <lane id=":node_531_end_0_1" index="1" speed="13.89" length="3.00" width="3.66" shape="734.38,237.62 737.13,236.44"/>
    </edge>
    <edge id=":node_531_start_0" function="internal">
        <lane id=":node_531_start_0_0" index="0" speed="13.89" length="0.30" width="3.66" shape="528.89,322.05 529.16,321.93"/>
        <lane id=":node_531_start_0_1" index="1" speed="13.89" length="0.30" width="3.66" shape="530.33,325.41 530.61,325.29"/>
    </edge>
    <edge id=":node_541_end_0" function="internal">
        <lane id=":node_541_end_0_0" index="0" speed="13.89" length="0.30" width="3.66" shape="5939.74,440.99 5940.04,441.02"/>
        <lane id=":node_541_end_0_1" index="1" speed="13.89" length="0.30" width="3.66" shape="5939.38,444.63 5939.67,444.66"/>
    </edge>
    <edge id=":node_541_start_0" function="internal">
        <lane id=":node_541_start_0_0" index="0" speed="13.89" length="0.30" width="3.66" shape="5883.24,435.27 5883.54,435.30"/>
        <lane id=":node_541_start_0_1" index="1" speed="13.89" length="0.30" width="3.66" shape="5882.88,438.91 5883.18,438.94"/>
    </edge>
    <edge id=":node_543_end_0" function="internal">
        <lane id=":node_543_end_0_0" index="0" speed="13.89" length="8.07" width="3.66" shape="7277.54,571.90 7285.58,572.65"/>
    </edge>
    <edge id=":node_543_end_1" function="internal">
        <lane id=":node_543_end_1_0" index="0" speed="13.89" length="7.98" width="3.66" shape="7277.62,572.27 7285.58,572.65"/>
        <lane id=":node_543_end_1_1" index="1" speed="13.89" length="7.98" width="3.66" shape="7277.43,575.93 7285.42,576.31"/>
    </edge>
    <edge id=":node_543_start_0" function="internal">
        <lane id=":node_543_start_0_0" index="0" speed="13.89" length="3.20" width="3.66" shape="7193.10,563.10 7196.28,563.44"/>
    </edge>
    <edge id=":node_543_start_1" function="internal">
        <lane id=":node_543_start_1_0" index="0" speed="13.89" length="3.02" width="3.66" shape="7192.77,566.74 7195.76,566.99"/>
        <lane id=":node_543_start_1_1" index="1" speed="13.89" length="3.02" width="3.66" shape="7192.45,570.39 7195.48,570.64"/>
    </edge>
    <edge id=":node_545_end_0" function="internal">
        <lane id=":node_545_end_0_0" index="0" speed="13.89" length="0.30" width="3.66" shape="4811.93,326.45 4812.22,326.48"/>
        <lane id=":node_545_end_0_1" index="1" speed="13.89" length="0.30" width="3.66" shape="4811.56,330.09 4811.86,330.12"/>
    </edge>
    <edge id=":node_546_end_0" function="internal">
        <lane id=":node_546_end_0_0" index="0" speed="13.89" length="0.30" width="3.66" shape="5996.52,446.76 5996.82,446.79"/>
        <lane id=":node_546_end_0_1" index="1" speed="13.89" length="0.30" width="3.66" shape="5996.16,450.40 5996.45,450.43"/>
    </edge>
    <edge id=":node_547_end_0" function="internal">
        <lane id=":node_547_end_0_0" index="0" speed="13.89" length="3.00" width="3.66" shape="6523.61,499.73 6526.59,500.02"/>
        <lane id=":node_547_end_0_1" index="1" speed="13.89" length="3.00" width="3.66" shape="6523.24,503.37 6526.23,503.67"/>
    </edge>
    <edge id=":node_550_end_0" function="internal">
        <lane id=":node_550_end_0_0" index="0" speed="13.89" length="0.30" width="3.66" shape="6040.38,451.06 6040.68,451.09"/>
        <lane id=":node_550_end_0_1" index="1" speed="13.89" length="0.30" width="3.66" shape="6040.02,454.70 6040.32,454.73"/>
    </edge>

    <edge id="512.0" from="node_512_start" to="node_512_end" priority="-1" type="town" shape="1082.59,90.06 1089.93,86.90 1106.38,79.87 1137.24,67.10 1148.95,62.49 1165.96,55.90 1182.22,49.96 1192.73,46.32 1201.83,43.26 1212.26,39.87 1224.70,36.03 1233.15,33.56 1243.34,30.71 1258.54,26.77 1267.70,24.54 1281.56,21.37 1290.84,19.33 1301.38,17.07 1312.59,14.92 1329.81,11.85 1341.89,9.83 1352.36,8.31 1370.65,5.89 1391.40,3.69 1408.24,2.37 1418.45,1.67 1424.48,1.30 1438.06,0.65 1451.33,0.19 1467.10,0.00 1478.84,0.01 1494.35,0.29 1503.77,0.57 1513.03,0.95 1523.71,1.48 1537.45,2.29 1556.61,3.75 1570.82,4.95 1572.20,5.09">
        <lane id="512.0_0" index="0" disallow="all" speed="13.89" length="505.89" width="3.66" shape="1078.97,81.66 1086.32,78.49 1102.83,71.44 1133.81,58.62 1145.62,53.97 1162.73,47.34 1179.15,41.34 1189.77,37.66 1198.95,34.57 1209.49,31.15 1222.06,27.27 1230.63,24.76 1240.95,21.87 1256.31,17.90 1265.59,15.63 1279.55,12.44 1288.90,10.39 1299.55,8.10 1310.92,5.92 1328.25,2.83 1340.47,0.79 1351.10,-0.75 1369.56,-3.20 1390.56,-5.42 1407.56,-6.76 1417.84,-7.46 1423.98,-7.84 1437.68,-8.49 1451.11,-8.96 1467.04,-9.15 1478.92,-9.14 1494.56,-8.86 1504.09,-8.57 1513.44,-8.19 1524.20,-7.66 1538.06,-6.84 1557.34,-5.37 1571.60,-4.17 1572.96,-4.03" type="shoulder"/>
        <lane id="512.0_1" index="1" speed="13.89" length="505.89" width="3.66" shape="1080.41,85.02 1087.76,81.85 1104.25,74.81 1135.18,62.01 1146.95,57.38 1164.02,50.76 1180.37,44.79 1190.95,41.12 1200.10,38.05 1210.60,34.64 1223.12,30.77 1231.64,28.28 1241.91,25.41 1257.20,21.45 1266.43,19.20 1280.35,16.01 1289.67,13.96 1300.28,11.69 1311.59,9.52 1328.87,6.44 1341.04,4.41 1351.60,2.87 1370.00,0.44 1390.89,-1.78 1407.83,-3.11 1418.08,-3.81 1424.18,-4.18 1437.83,-4.84 1451.20,-5.30 1467.06,-5.49 1478.89,-5.48 1494.48,-5.20 1503.96,-4.92 1513.28,-4.53 1524.00,-4.00 1537.82,-3.19 1557.04,-1.72 1571.29,-0.52 1572.59,-0.39"/>
        <lane id="512.0_2" index="2" speed="13.89" length="505.89" width="3.66" shape="1081.86,88.38 1089.20,85.22 1105.67,78.18 1136.55,65.40 1148.28,60.79 1165.31,54.19 1181.60,48.24 1192.13,44.59 1201.25,41.52 1211.70,38.13 1224.17,34.28 1232.64,31.80 1242.86,28.94 1258.09,25.00 1267.27,22.76 1281.15,19.58 1290.45,17.54 1301.01,15.28 1312.25,13.12 1329.49,10.05 1341.60,8.02 1352.10,6.50 1370.43,4.07 1391.23,1.87 1408.10,0.54 1418.32,-0.16 1424.38,-0.53 1437.98,-1.18 1451.28,-1.64 1467.09,-1.83 1478.85,-1.82 1494.39,-1.54 1503.83,-1.26 1513.11,-0.88 1523.80,-0.35 1537.57,0.46 1556.75,1.93 1570.97,3.13 1572.22,3.25"/>
    </edge>
    <edge id="516.0" from="node_516_start" to="node_516_end" priority="-1" type="town" shape="2120.09,60.35 2128.09,61.14 2139.36,62.28 2152.38,63.59 2163.21,64.67 2170.56,65.41 2181.88,66.55 2191.21,67.49 2204.92,68.91 2218.44,70.27 2235.00,71.98 2248.94,73.39 2260.79,74.63 2269.54,75.50 2283.30,76.88 2297.86,78.34 2311.90,79.79 2317.21,80.31">
        <lane id="516.0_0" index="0" disallow="all" speed="13.89" length="197.83" width="3.66" shape="2121.13,51.26 2129.00,52.04 2140.27,53.18 2153.29,54.49 2164.12,55.57 2171.47,56.31 2182.79,57.45 2192.14,58.39 2205.84,59.81 2219.36,61.17 2235.93,62.88 2249.87,64.29 2261.72,65.53 2270.45,66.40 2284.21,67.78 2298.78,69.24 2312.82,70.69 2317.95,71.19" type="shoulder"/>
        <lane id="516.0_1" index="1" speed="13.89" length="197.83" width="3.66" shape="2120.77,54.90 2128.63,55.68 2139.91,56.82 2152.92,58.13 2163.75,59.21 2171.11,59.95 2182.43,61.09 2191.76,62.03 2205.47,63.45 2218.99,64.81 2235.55,66.52 2249.50,67.93 2261.34,69.17 2270.08,70.04 2283.84,71.42 2298.41,72.88 2312.45,74.33 2317.60,74.83"/>
        <lane id="516.0_2" index="2" speed="13.89" length="197.83" width="3.66" shape="2120.41,58.54 2128.27,59.32 2139.54,60.46 2152.56,61.77 2163.39,62.85 2170.74,63.59 2182.06,64.73 2191.39,65.67 2205.10,67.09 2218.62,68.45 2235.18,70.16 2249.12,71.57 2260.97,72.81 2269.72,73.68 2283.48,75.06 2298.04,76.52 2312.08,77.97 2317.24,78.47"/>
    </edge>
    <edge id="517.0" from="node_512_end" to="node_516_start" priority="-1" type="town" shape="1572.20,5.09 1581.31,5.95 1591.10,6.92 1599.28,7.74 1613.48,9.13 1627.84,10.59 1643.05,12.08 1656.21,13.43 1673.32,15.14 1688.42,16.70 1706.27,18.50 1718.99,19.79 1730.07,20.94 1741.47,22.08 1750.75,23.01 1760.55,24.02 1769.87,24.98 1781.46,26.17 1794.55,27.47 1806.25,28.69 1817.21,29.79 1829.42,31.07 1844.83,32.60 1857.66,33.90 1868.87,35.01 1876.58,35.80 1888.12,36.94 1897.99,37.96 1910.00,39.15 1918.10,40.00 1927.83,41.02 1938.86,42.13 1951.08,43.37 1965.16,44.80 1977.70,46.05 1989.83,47.31 2000.46,48.36 2013.75,49.67 2025.59,50.88 2040.95,52.40 2045.68,52.89 2052.54,53.58 2061.12,54.43 2067.78,55.10 2076.97,56.00 2089.73,57.30 2101.95,58.53 2115.37,59.89 2120.09,60.35">
        <lane id="517.0_0" index="0" disallow="all" speed="13.89" length="550.38" width="3.66" shape="1573.22,-4.00 1582.19,-3.16 1592.00,-2.18 1600.17,-1.37 1614.38,0.03 1628.74,1.49 1643.96,2.98 1657.13,4.33 1674.24,6.04 1689.34,7.60 1707.19,9.40 1719.92,10.69 1730.99,11.84 1742.38,12.98 1751.67,13.91 1761.48,14.92 1770.80,15.88 1782.37,17.07 1795.47,18.37 1807.18,19.59 1818.14,20.69 1830.34,21.97 1845.74,23.50 1858.57,24.80 1869.78,25.91 1877.49,26.70 1889.03,27.84 1898.90,28.86 1910.92,30.05 1919.05,30.90 1928.76,31.92 1939.78,33.03 1952.00,34.27 1966.07,35.70 1978.62,36.95 1990.75,38.21 2001.35,39.25 2014.66,40.57 2026.50,41.78 2041.86,43.30 2046.60,43.79 2053.44,44.48 2062.02,45.33 2068.68,45.99 2077.88,46.90 2090.65,48.20 2102.86,49.43 2116.28,50.79 2120.83,51.23" type="shoulder"/>
        <lane id="517.0_1" index="1" speed="13.89" length="550.38" width="3.66" shape="1572.87,-0.36 1581.83,0.49 1591.64,1.46 1599.81,2.28 1614.02,3.67 1628.38,5.13 1643.59,6.62 1656.76,7.97 1673.87,9.68 1688.97,11.24 1706.82,13.04 1719.55,14.33 1730.62,15.48 1742.01,16.62 1751.30,17.55 1761.11,18.56 1770.43,19.52 1782.01,20.71 1795.10,22.01 1806.80,23.23 1817.77,24.33 1829.97,25.61 1845.37,27.14 1858.20,28.44 1869.41,29.55 1877.12,30.34 1888.67,31.48 1898.54,32.50 1910.55,33.69 1918.67,34.54 1928.39,35.56 1939.41,36.67 1951.63,37.91 1965.71,39.34 1978.25,40.59 1990.38,41.85 2000.99,42.90 2014.29,44.21 2026.13,45.42 2041.49,46.94 2046.23,47.43 2053.08,48.12 2061.66,48.97 2068.32,49.64 2077.51,50.54 2090.28,51.84 2102.50,53.07 2115.91,54.43 2120.47,54.87"/>
        <lane id="517.0_2" index="2" speed="13.89" length="550.38" width="3.66" shape="1572.53,3.28 1581.48,4.13 1591.28,5.10 1599.46,5.92 1613.66,7.31 1628.02,8.77 1643.23,10.26 1656.39,11.61 1673.50,13.32 1688.60,14.88 1706.45,16.68 1719.17,17.97 1730.25,19.12 1741.65,20.26 1750.93,21.19 1760.73,22.20 1770.05,23.16 1781.64,24.35 1794.73,25.65 1806.43,26.87 1817.39,27.97 1829.60,29.25 1845.01,30.78 1857.84,32.08 1869.05,33.19 1876.76,33.98 1888.30,35.12 1898.17,36.14 1910.18,37.33 1918.29,38.18 1928.01,39.20 1939.04,40.31 1951.26,41.55 1965.34,42.98 1977.88,44.23 1990.01,45.49 2000.63,46.54 2013.93,47.85 2025.77,49.06 2041.13,50.58 2045.86,51.07 2052.72,51.76 2061.30,52.61 2067.96,53.28 2077.15,54.18 2089.91,55.48 2102.13,56.71 2115.55,58.07 2120.12,58.51"/>
    </edge>
    <edge id="519.0" from="node_519_start" to="node_519_end" priority="-1" type="town" shape="855.04,187.71 868.64,181.84 895.76,170.19 913.31,162.65 934.87,153.47 953.59,145.42 968.73,138.96 985.41,131.78 1004.93,123.37 1012.54,120.12">
        <lane id="519.0_0" index="0" disallow="all" speed="13.89" length="169.76" width="3.66" shape="852.79,178.71 865.02,173.43 892.14,161.78 909.71,154.24 931.27,145.06 949.98,137.01 965.12,130.55 981.79,123.38 1001.31,114.96 1008.80,111.76" type="shoulder"/>
        <lane id="519.0_1" index="1" speed="13.89" length="169.76" width="3.66" shape="854.24,182.08 866.47,176.80 893.59,165.15 911.15,157.60 932.71,148.42 951.42,140.37 966.56,133.91 983.23,126.74 1002.76,118.33 1010.24,115.13"/>
        <lane id="519.0_2" index="2" speed="13.89" length="169.76" width="3.66" shape="855.69,185.44 867.91,180.16 895.03,168.51 912.59,160.97 934.15,151.79 952.86,143.74 968.00,137.28 984.68,130.10 1004.20,121.69 1011.68,118.50"/>
    </edge>
    <edge id="521.0" from="node_516_end" to="node_521_end" priority="-1" type="town" shape="2317.21,80.31 2324.00,80.99 2344.48,83.06 2359.85,84.63 2375.93,86.27 2391.63,87.83 2401.74,88.87 2414.59,90.16 2427.12,91.42 2436.47,92.36 2449.51,93.66 2461.45,94.88 2471.61,95.90 2484.20,97.14 2497.50,98.48 2513.52,100.07 2528.69,101.58 2539.68,102.72 2552.93,104.10 2563.03,105.08 2572.01,106.00 2581.55,106.94 2592.78,108.03 2599.86,108.75 2612.80,110.05 2624.09,111.20 2638.60,112.61 2651.43,113.92 2662.55,115.03 2671.33,115.89 2683.87,117.11 2692.31,117.95 2700.42,118.78 2709.50,119.69 2723.23,121.09 2735.25,122.34 2747.86,123.62 2754.20,124.26 2760.85,124.94 2767.81,125.63 2774.44,126.29 2786.80,127.53 2799.21,128.79 2808.47,129.70 2821.04,130.97 2836.97,132.59 2851.42,134.06 2863.83,135.30 2876.51,136.59 2885.00,137.45 2897.01,138.68 2910.18,140.01 2920.50,141.07 2929.62,142.00 2936.54,142.68 2945.89,143.62 2952.73,144.29 2958.69,144.90 2966.48,145.66 2973.03,146.35 2979.39,146.97 2985.68,147.62 2992.14,148.24 3003.61,149.38 3016.18,150.64 3030.23,152.07 3042.94,153.35 3054.54,154.53 3062.86,155.38 3079.23,157.02 3086.38,157.75 3094.39,158.56 3115.32,160.73 3133.44,162.55 3160.84,165.33 3183.76,167.68 3211.61,170.59 3235.37,172.99 3259.19,175.43 3279.35,177.53 3303.69,179.92 3329.59,182.56 3350.89,184.69 3373.46,186.97 3397.46,189.37 3419.60,191.56 3442.35,193.86 3470.18,196.62 3495.99,199.19 3510.34,200.59 3527.44,202.26 3544.31,203.98 3562.91,205.85 3581.56,207.73 3600.19,209.68 3618.74,211.55 3636.66,213.42 3658.21,215.60 3680.37,217.85 3697.19,219.54 3713.58,221.22 3727.35,222.62 3744.65,224.37 3761.40,226.06 3782.56,228.17 3804.13,230.39 3824.19,232.39 3846.43,234.64 3866.68,236.70 3886.85,238.75 3906.97,240.76 3928.18,242.90 3947.28,244.88 3968.67,247.00 3996.49,249.83 4024.61,252.67 4055.97,255.78 4079.31,258.12 4105.95,260.76 4130.52,263.28 4158.36,266.09 4182.34,268.54 4207.14,271.05 4237.25,274.11 4272.49,277.66 4305.12,280.91 4339.40,284.35 4376.84,288.07 4403.71,290.77 4429.08,293.40 4450.12,295.52 4484.81,299.00 4519.25,302.49 4556.93,306.31 4605.35,311.17 4648.88,315.55 4695.14,320.12 4717.51,322.40">
        <lane id="521.0_0" index="0" disallow="all" speed="13.89" length="2412.19" width="3.66" shape="2318.26,71.22 2324.91,71.89 2345.40,73.96 2360.77,75.53 2376.84,77.17 2392.54,78.73 2402.66,79.77 2415.50,81.06 2428.03,82.32 2437.38,83.26 2450.42,84.56 2462.37,85.78 2472.51,86.79 2485.10,88.04 2498.41,89.38 2514.42,90.96 2529.61,92.48 2540.62,93.62 2553.85,95.00 2563.93,95.98 2572.92,96.90 2582.44,97.83 2593.68,98.92 2600.77,99.65 2613.72,100.95 2624.99,102.09 2639.50,103.50 2652.35,104.82 2663.45,105.92 2672.21,106.78 2684.76,108.00 2693.22,108.85 2701.34,109.68 2710.42,110.59 2724.16,111.99 2736.18,113.24 2748.78,114.52 2755.12,115.16 2761.76,115.84 2768.71,116.52 2775.35,117.19 2787.71,118.43 2800.12,119.69 2809.37,120.60 2821.96,121.87 2837.89,123.49 2852.33,124.96 2864.74,126.20 2877.43,127.49 2885.92,128.35 2897.93,129.58 2911.10,130.91 2921.43,131.97 2930.53,132.90 2937.44,133.58 2946.79,134.51 2953.64,135.19 2959.59,135.80 2967.40,136.56 2973.95,137.25 2980.30,137.87 2986.58,138.52 2993.03,139.13 3004.51,140.28 3017.10,141.54 3031.15,142.97 3043.86,144.25 3055.46,145.43 3063.77,146.28 3080.14,147.92 3087.30,148.65 3095.32,149.46 3116.25,151.63 3134.36,153.45 3161.76,156.23 3184.70,158.58 3212.54,161.49 3236.29,163.89 3260.12,166.33 3280.27,168.43 3304.60,170.82 3330.51,173.46 3351.80,175.59 3374.37,177.87 3398.36,180.26 3420.51,182.46 3443.26,184.76 3471.08,187.51 3496.89,190.08 3511.22,191.48 3528.34,193.16 3545.23,194.88 3563.82,196.75 3582.49,198.63 3601.12,200.58 3619.67,202.45 3637.59,204.32 3659.13,206.50 3681.29,208.75 3698.11,210.44 3714.50,212.12 3728.27,213.52 3745.57,215.27 3762.31,216.96 3783.48,219.07 3805.05,221.29 3825.10,223.29 3847.35,225.54 3867.60,227.60 3887.76,229.65 3907.88,231.66 3929.11,233.80 3948.20,235.78 3969.58,237.90 3997.41,240.73 4025.52,243.57 4056.87,246.68 4080.21,249.02 4106.86,251.66 4131.44,254.18 4159.28,256.99 4183.26,259.44 4208.06,261.95 4238.17,265.01 4273.40,268.56 4306.03,271.81 4340.30,275.25 4377.74,278.97 4404.63,281.67 4430.01,284.30 4451.03,286.42 4485.72,289.90 4520.17,293.39 4557.84,297.21 4606.26,302.07 4649.78,306.45 4696.04,311.02 4718.28,313.28" type="shoulder"/>
        <lane id="521.0_1" index="1" speed="13.89" length="2412.19" width="3.66" shape="2317.90,74.86 2324.55,75.53 2345.03,77.60 2360.40,79.17 2376.48,80.81 2392.18,82.37 2402.29,83.41 2415.13,84.70 2427.66,85.96 2437.01,86.90 2450.06,88.20 2462.00,89.42 2472.15,90.44 2484.74,91.68 2498.04,93.02 2514.06,94.61 2529.24,96.12 2540.24,97.26 2553.48,98.64 2563.57,99.62 2572.55,100.54 2582.08,101.48 2593.32,102.57 2600.41,103.29 2613.35,104.59 2624.63,105.74 2639.14,107.15 2651.98,108.46 2663.09,109.57 2671.86,110.43 2684.40,111.65 2692.86,112.49 2700.97,113.32 2710.05,114.23 2723.79,115.63 2735.81,116.88 2748.41,118.16 2754.75,118.80 2761.40,119.48 2768.35,120.17 2774.98,120.83 2787.35,122.07 2799.75,123.33 2809.01,124.24 2821.59,125.51 2837.52,127.13 2851.97,128.60 2864.38,129.84 2877.06,131.13 2885.55,131.99 2897.56,133.22 2910.73,134.55 2921.05,135.61 2930.16,136.54 2937.08,137.22 2946.43,138.16 2953.27,138.83 2959.23,139.44 2967.03,140.20 2973.58,140.89 2979.93,141.51 2986.22,142.16 2992.67,142.78 3004.15,143.92 3016.73,145.18 3030.78,146.61 3043.49,147.89 3055.09,149.07 3063.41,149.92 3079.78,151.56 3086.93,152.29 3094.95,153.10 3115.87,155.27 3133.99,157.09 3161.39,159.87 3184.32,162.22 3212.17,165.13 3235.92,167.53 3259.75,169.97 3279.90,172.07 3304.23,174.46 3330.14,177.10 3351.43,179.23 3374.00,181.51 3398.00,183.91 3420.14,186.10 3442.89,188.40 3470.72,191.16 3496.53,193.73 3510.87,195.13 3527.98,196.80 3544.86,198.52 3563.46,200.39 3582.12,202.27 3600.75,204.22 3619.30,206.09 3637.22,207.96 3658.76,210.14 3680.92,212.39 3697.74,214.08 3714.13,215.76 3727.90,217.16 3745.20,218.91 3761.94,220.60 3783.11,222.71 3804.68,224.93 3824.73,226.93 3846.98,229.18 3867.23,231.24 3887.40,233.29 3907.51,235.30 3928.73,237.44 3947.83,239.42 3969.21,241.54 3997.04,244.37 4025.15,247.21 4056.51,250.32 4079.85,252.66 4106.50,255.30 4131.07,257.82 4158.91,260.63 4182.89,263.08 4207.69,265.59 4237.80,268.65 4273.03,272.20 4305.66,275.45 4339.94,278.89 4377.38,282.61 4404.26,285.31 4429.63,287.94 4450.66,290.06 4485.36,293.54 4519.80,297.03 4557.48,300.85 4605.89,305.71 4649.42,310.09 4695.68,314.66 4717.91,316.92"/>
        <lane id="521.0_2" index="2" speed="13.89" length="2412.19" width="3.66" shape="2317.53,78.50 2324.18,79.17 2344.66,81.24 2360.03,82.81 2376.11,84.45 2391.81,86.01 2401.92,87.05 2414.77,88.34 2427.30,89.60 2436.65,90.54 2449.69,91.84 2461.63,93.06 2471.79,94.08 2484.38,95.32 2497.68,96.66 2513.70,98.25 2528.87,99.76 2539.86,100.90 2553.11,102.28 2563.21,103.26 2572.19,104.18 2581.72,105.12 2592.96,106.21 2600.04,106.93 2612.98,108.23 2624.27,109.38 2638.78,110.79 2651.61,112.10 2662.73,113.21 2671.50,114.07 2684.04,115.29 2692.49,116.13 2700.60,116.96 2709.68,117.87 2723.41,119.27 2735.43,120.52 2748.04,121.80 2754.38,122.44 2761.03,123.12 2767.99,123.81 2774.62,124.47 2786.98,125.71 2799.39,126.97 2808.65,127.88 2821.22,129.15 2837.15,130.77 2851.60,132.24 2864.01,133.48 2876.69,134.77 2885.18,135.63 2897.19,136.86 2910.36,138.19 2920.68,139.25 2929.80,140.18 2936.72,140.86 2946.07,141.80 2952.91,142.47 2958.87,143.08 2966.66,143.84 2973.21,144.53 2979.57,145.15 2985.86,145.80 2992.31,146.42 3003.79,147.56 3016.36,148.82 3030.41,150.25 3043.12,151.53 3054.72,152.71 3063.04,153.56 3079.41,155.20 3086.56,155.93 3094.57,156.74 3115.50,158.91 3133.62,160.73 3161.02,163.51 3183.94,165.86 3211.79,168.77 3235.55,171.17 3259.37,173.61 3279.53,175.71 3303.87,178.10 3329.77,180.74 3351.07,182.87 3373.64,185.15 3397.64,187.55 3419.78,189.74 3442.53,192.04 3470.36,194.80 3496.17,197.37 3510.51,198.77 3527.62,200.44 3544.49,202.16 3563.09,204.03 3581.74,205.91 3600.37,207.86 3618.92,209.73 3636.84,211.60 3658.39,213.78 3680.55,216.03 3697.37,217.72 3713.76,219.40 3727.53,220.80 3744.83,222.55 3761.58,224.24 3782.74,226.35 3804.31,228.57 3824.37,230.57 3846.61,232.82 3866.86,234.88 3887.03,236.93 3907.15,238.94 3928.36,241.08 3947.46,243.06 3968.85,245.18 3996.67,248.01 4024.79,250.85 4056.15,253.96 4079.49,256.30 4106.13,258.94 4130.70,261.46 4158.54,264.27 4182.52,266.72 4207.32,269.23 4237.43,272.29 4272.67,275.84 4305.30,279.09 4339.58,282.53 4377.02,286.25 4403.89,288.95 4429.26,291.58 4450.30,293.70 4484.99,297.18 4519.43,300.67 4557.11,304.49 4605.53,309.35 4649.06,313.73 4695.32,318.30 4717.54,320.56"/>
    </edge>
    <edge id="524.0" from="node_519_end" to="node_512_start" priority="-1" type="town" shape="1012.54,120.12 1020.65,116.66 1039.88,108.42 1063.01,98.49 1082.59,90.06">
        <lane id="524.0_0" index="0" disallow="all" speed="13.89" length="76.06" width="3.66" shape="1009.08,111.65 1017.05,108.25 1036.27,100.01 1059.39,90.08 1078.97,81.66" type="shoulder"/>
        <lane id="524.0_1" index="1" speed="13.89" length="76.06" width="3.66" shape="1010.52,115.01 1018.49,111.61 1037.71,103.37 1060.84,93.45 1080.41,85.02"/>
        <lane id="524.0_2" index="2" speed="13.89" length="76.06" width="3.66" shape="1011.95,118.38 1019.93,114.98 1039.15,106.74 1062.28,96.81 1081.86,88.38"/>
    </edge>
    <edge id="531.0" from="node_531_start" to="node_531_end" priority="-1" type="town" shape="531.20,327.03 534.99,325.40 548.30,319.66 559.67,314.78 569.37,310.62 578.25,306.83 586.18,303.44 600.28,297.37 612.18,292.25 623.68,287.32 636.07,281.98 650.36,275.80 667.13,268.60 681.32,262.43 697.52,255.46 703.76,252.79 715.40,247.77 727.83,242.42 736.48,238.71">
        <lane id="531.0_0" index="0" disallow="all" speed="13.89" length="221.83" width="3.66" shape="527.72,318.56 531.36,317.00 544.68,311.26 556.06,306.37 565.77,302.21 574.65,298.42 582.56,295.03 596.66,288.97 608.56,283.84 620.06,278.91 632.44,273.58 646.74,267.40 663.50,260.20 677.68,254.03 693.90,247.05 700.14,244.38 711.77,239.37 724.21,234.01 731.49,230.89" type="shoulder"/>
        <lane id="531.0_1" index="1" speed="13.89" length="221.83" width="3.66" shape="529.16,321.93 532.81,320.36 546.13,314.62 557.50,309.73 567.21,305.57 576.09,301.78 584.01,298.40 598.10,292.33 610.01,287.21 621.51,282.28 633.89,276.94 648.18,270.76 664.95,263.56 679.14,257.39 695.35,250.42 701.59,247.75 713.22,242.73 725.66,237.38 732.94,234.25"/>
        <lane id="531.0_2" index="2" speed="13.89" length="221.83" width="3.66" shape="530.61,325.29 534.26,323.72 547.57,317.98 558.94,313.10 568.65,308.94 577.53,305.15 585.45,301.76 599.55,295.69 611.45,290.57 622.95,285.64 635.34,280.30 649.63,274.12 666.40,266.92 680.59,260.75 696.79,253.78 703.03,251.11 714.67,246.09 727.10,240.74 734.38,237.62"/>
    </edge>
    <edge id="532.0" from="j_merge_end_32" to="node_531_start" priority="-1" type="town" shape="146.93,492.40 155.39,488.78 171.13,481.99 183.31,476.73 199.79,469.61 214.59,463.27 225.94,458.39 248.03,448.87 261.88,442.92 275.08,437.21 284.67,433.08 295.02,428.64 308.10,423.00 321.24,417.34 332.68,412.40 347.57,406.00 364.08,398.86 387.06,389.02 406.66,380.58 424.62,372.89 444.00,364.54 463.18,356.32 479.65,349.24 495.13,342.58 507.57,337.22 521.24,331.31 531.20,327.03">
        <lane id="532.0_0" index="0" disallow="all" speed="13.89" length="418.18" width="3.66" shape="143.33,483.99 151.77,480.37 167.50,473.59 179.68,468.33 196.17,461.21 210.98,454.86 222.32,449.99 244.41,440.47 258.25,434.52 271.45,428.81 281.05,424.67 291.40,420.23 304.47,414.60 317.61,408.94 329.06,404.00 343.94,397.60 360.46,390.45 383.45,380.61 403.04,372.17 421.00,364.48 440.38,356.13 459.57,347.91 476.03,340.83 491.51,334.18 503.94,328.82 517.61,322.91 527.44,318.68" type="shoulder"/>
        <lane id="532.0_1" index="1" speed="13.89" length="418.18" width="3.66" shape="144.77,487.35 153.22,483.74 168.95,476.95 181.13,471.69 197.62,464.57 212.42,458.22 223.76,453.35 245.85,443.83 259.70,437.88 272.90,432.17 282.50,428.04 292.85,423.60 305.92,417.96 319.06,412.30 330.50,407.36 345.39,400.96 361.91,393.82 384.89,383.98 404.49,375.54 422.45,367.85 441.83,359.50 461.01,351.27 477.48,344.20 492.95,337.54 505.39,332.18 519.06,326.27 528.89,322.05"/>
        <lane id="532.0_2" index="2" speed="13.89" length="418.18" width="3.66" shape="146.21,490.72 154.66,487.10 170.40,480.31 182.58,475.05 199.06,467.93 213.86,461.59 225.21,456.71 247.30,447.19 261.15,441.24 274.35,435.53 283.94,431.40 294.29,426.96 307.37,421.32 320.51,415.66 331.95,410.72 346.84,404.32 363.35,397.18 386.33,387.34 405.93,378.90 423.89,371.21 443.27,362.86 462.45,354.64 478.92,347.56 494.40,340.90 506.84,335.54 520.51,329.63 530.33,325.41"/>
    </edge>
    <edge id="535.0" from="node_531_end" to="node_519_start" priority="-1" type="town" shape="736.48,238.71 741.73,236.47 754.71,230.88 768.68,224.88 781.03,219.60 790.51,215.51 799.99,211.41 825.74,200.37 855.04,187.71">