<?xml version='1.0' encoding='utf-8'?>
<connections>
    <connection from="552.0" to="549.0" fromLane="2" toLane="2" />
    <connection from="552.0" to="549.0" fromLane="1" toLane="1" />
    <connection from="556.0" to="557.0" fromLane="1" toLane="0" />
    <connection from="556.0" to="547.0" fromLane="2" toLane="1" />
    <connection from="556.0" to="547.0" fromLane="1" toLane="0" />
</connections>