<?xml version="1.0" encoding="UTF-8"?>

<!-- generated on 2025-10-19 17:35:17 by Eclipse SUMO netconvert Version 1.23.1
<netconvertConfiguration xmlns:xsi="http://www.w3.org/2001/XMLSchema-instance" xsi:noNamespaceSchemaLocation="http://sumo.dlr.de/xsd/netconvertConfiguration.xsd">

    <input>
        <node-files value="/home/sdai/harry/TeraSim/jupiter/eb/jupiter_eb_tiles/tile_0098/tile_0098.nod.xml"/>
        <edge-files value="/home/sdai/harry/TeraSim/jupiter/eb/jupiter_eb_tiles/tile_0098/tile_0098.edg.xml"/>
    </input>

    <output>
        <output-file value="/home/sdai/harry/TeraSim/jupiter/eb/jupiter_eb_tiles/tile_0098/tile_0098.net.xml"/>
        <output.street-names value="true"/>
        <output.original-names value="true"/>
    </output>

    <processing>
        <geometry.remove value="false"/>
        <geometry.min-dist value="0.5"/>
        <edges.join value="false"/>
    </processing>

    <junctions>
        <no-internal-links value="false"/>
        <no-turnarounds value="true"/>
        <junctions.join value="true"/>
        <junctions.join-dist value="10"/>
        <junctions.corner-detail value="5"/>
        <junctions.internal-link-detail value="5"/>
        <junctions.limit-turn-speed value="5.5"/>
        <rectangular-lane-cut value="true"/>
        <check-lane-foes.all value="true"/>
    </junctions>

</netconvertConfiguration>
-->

<net version="1.20" junctionCornerDetail="5" junctionLinkDetail="5" rectangularLaneCut="true" limitTurnSpeed="5.50" checkLaneFoesAll="1" xmlns:xsi="http://www.w3.org/2001/XMLSchema-instance" xsi:noNamespaceSchemaLocation="http://sumo.dlr.de/xsd/net_file.xsd">

    <location netOffset="-715665.83,-3286455.08" convBoundary="0.00,0.00,11492.29,425.15" origBoundary="0.00,0.00,727158.12,3286880.23" projParameter="!"/>

    <edge id="548.0" from="node_548_start" to="junction_90" priority="-1" type="town" shape="0.00,284.96 9.36,285.37 26.98,286.24 40.95,286.77 55.83,287.32 77.80,288.03 98.78,288.64 114.47,289.11 128.89,289.48 146.67,290.01 164.82,290.56 183.38,291.06 201.79,291.54 219.24,292.01 239.88,292.60 257.94,293.12 276.50,293.63 290.18,294.06 306.40,294.47 327.38,295.05 349.90,295.64 369.74,296.16 389.99,296.78 415.86,297.47 435.73,298.04 460.44,298.68 499.83,299.86 528.20,300.60 553.53,301.31 572.53,301.80 587.99,302.25 609.48,302.86 626.02,303.30 649.02,303.91 663.24,304.28 684.66,304.85 709.11,305.57 738.11,306.37 761.26,307.04 783.59,307.70 808.91,308.36 830.07,308.95 855.03,309.65 879.13,310.28 910.13,311.11 937.03,311.83 956.39,312.37 980.15,313.06 1006.55,313.79 1037.91,314.72 1073.66,315.70 1094.71,316.30 1119.58,316.98 1146.08,317.66 1173.71,318.47 1206.30,319.34 1247.56,320.47 1276.92,321.28 1309.71,322.14 1348.93,323.23 1388.44,324.34 1431.69,325.54 1451.53,326.08 1474.99,326.74 1505.18,327.57 1534.54,328.39 1560.74,329.11 1584.84,329.83 1599.58,330.22 1622.63,330.89 1643.74,331.47 1665.20,332.05 1686.31,332.60 1708.13,333.19 1729.38,333.83 1752.15,334.45 1774.94,335.13 1793.70,335.60 1817.86,336.28 1846.82,337.07 1867.58,337.61 1891.60,338.24 1910.03,338.79 1930.38,339.33 1949.89,339.91 1971.09,340.46 1990.27,340.98 2015.35,341.70 2041.24,342.42 2069.11,343.18 2102.09,344.10 2131.50,344.93 2154.84,345.54 2175.98,346.12 2190.64,346.55 2207.65,347.03 2223.97,347.45 2241.92,347.91 2254.66,348.26 2273.75,348.79 2291.64,349.31 2314.64,349.96 2337.26,350.59 2364.45,351.35 2392.02,352.13 2424.61,352.97 2460.82,353.96 2495.10,354.92 2532.63,355.92 2571.68,357.00 2602.15,357.84 2633.74,358.67 2666.11,359.60 2695.22,360.36 2718.51,361.03 2747.44,361.86 2777.44,362.67 2803.00,363.38 2822.42,363.91 2846.05,364.55 2868.93,365.17 2889.71,365.73 2909.06,366.23 2926.31,366.70 2942.84,367.19 2955.81,367.52 2976.77,368.10 3000.51,368.81 3024.63,369.51 3047.37,370.14 3066.14,370.69 3085.75,371.25 3106.93,371.89 3128.32,372.41 3151.23,373.15 3172.68,373.71 3195.89,374.39 3221.30,375.16 3244.10,375.73 3268.79,376.41 3295.37,377.19 3320.98,377.95 3346.36,378.64 3372.41,379.40 3398.88,380.13 3427.64,380.87 3456.41,381.73 3483.81,382.46 3510.74,383.18 3532.56,383.78 3560.63,384.54 3591.75,385.35 3622.23,386.12 3654.40,386.49 3688.57,386.22 3706.90,385.84 3719.03,385.46 3742.30,384.50 3764.12,383.35 3785.17,381.99 3804.63,380.44 3825.51,378.53 3844.44,376.62 3859.56,374.93 3873.45,373.30 3890.58,371.19 3906.47,369.07 3921.29,367.03 3936.40,364.98 3950.11,363.11 3963.23,361.29 3978.05,359.31 3993.48,357.22 4006.60,355.40 4022.04,353.32 4036.63,351.33 4074.58,346.12 4119.07,340.07 4142.69,336.88 4160.04,334.54 4199.76,329.10 4239.50,323.72 4267.35,319.92 4297.95,315.75 4325.13,312.06 4353.07,308.23 4381.67,304.33 4406.50,300.99 4430.10,297.78 4456.13,294.17 4482.60,290.60 4511.53,286.61 4533.64,283.61 4552.31,281.08 4571.84,278.45 4591.38,275.80 4611.95,272.99 4633.44,270.10 4655.47,267.10 4676.90,264.16 4701.74,260.74 4724.70,257.54 4747.20,254.48 4767.05,251.76 4790.08,248.61 4812.86,245.53 4832.51,242.83 4856.87,239.55 4880.66,236.30 4900.45,233.62 4920.93,230.84 4947.97,227.14 4973.83,223.62 5000.46,219.98 5026.48,216.48 5046.06,213.84 5063.83,211.40 5081.13,209.05 5107.48,205.47 5137.53,201.39 5168.41,197.18 5198.98,193.04 5228.65,189.05 5258.85,184.93 5288.67,180.89 5325.29,175.89 5363.01,170.75 5399.33,165.75 5433.64,161.02 5466.72,156.47 5503.01,151.52 5536.63,146.95 5566.71,142.87 5594.00,139.16 5623.59,135.15 5653.27,131.08 5680.03,127.43 5705.93,123.92 5733.93,120.16 5755.67,117.19 5775.61,114.46 5796.70,111.59 5819.99,108.40 5845.39,104.99 5871.30,101.45 5895.88,98.11 5927.33,93.82 5950.41,90.66 5976.65,87.09 6005.44,83.19 6032.36,79.51 6057.70,76.08 6085.17,72.34 6111.38,68.76 6125.01,66.95 6143.19,64.44 6170.25,60.79 6196.63,57.23 6222.63,53.69 6250.57,49.91 6277.44,46.30 6301.91,42.96 6324.22,39.88 6343.75,37.20 6366.32,34.14 6389.66,30.99 6412.98,27.85 6434.67,24.96 6456.34,22.12 6476.09,19.53 6495.54,16.93 6519.32,13.74 6540.35,11.06 6558.97,9.00 6579.05,7.13 6598.72,5.46 6615.43,4.21 6636.57,2.83 6654.65,1.87 6673.29,1.08 6691.99,0.48 6709.51,0.18 6728.26,0.00 6746.02,0.02 6763.65,0.18 6775.62,0.42 6791.46,0.80 6810.91,1.52 6826.11,2.27 6840.11,2.97 6852.84,3.76 6866.33,4.59 6880.46,5.60 6888.61,6.25 6894.62,6.72 6908.24,7.89 6920.52,8.95 6936.15,10.35 6952.41,11.78 6969.42,13.31 6989.21,15.01 7006.53,16.53 7024.54,18.15 7041.97,19.72 7061.73,21.51 7079.87,23.17 7097.23,24.77 7116.03,26.47 7132.72,27.98 7148.73,29.44 7160.34,30.47 7174.02,31.75 7185.55,32.80 7198.82,34.05 7214.99,35.52 7231.85,37.04 7250.33,38.74 7265.32,40.12 7281.49,41.58 7300.91,43.38 7320.30,45.11 7333.32,46.28 7349.65,47.77 7366.71,49.28 7381.82,50.67 7396.25,51.97 7413.56,53.52 7428.29,54.86 7443.90,56.23 7458.69,57.59 7473.06,58.90 7485.23,60.03 7509.09,62.23 7532.40,64.34 7555.78,66.50 7576.42,68.39 7596.18,70.17 7618.49,72.22 7639.46,74.14 7662.34,76.19 7679.45,77.77 7699.03,79.55 7717.39,81.22 7733.67,82.67 7748.95,84.06 7762.25,85.28 7777.45,86.64 7791.62,87.89 7805.02,89.10 7818.87,90.34 7834.11,91.73 7845.84,92.76 7860.41,94.10 7875.65,95.48 7892.21,97.00 7906.04,98.26 7919.25,99.46 7932.54,100.67 7946.52,101.93 7958.50,103.04 7968.13,103.87 7979.85,105.00 7997.37,106.59 8014.27,108.14 8030.52,109.65 8045.65,110.99 8060.41,112.37 8075.89,113.79 8091.74,115.22 8103.07,116.26 8114.49,117.33 8126.18,118.40 8140.77,119.74 8157.47,121.26 8171.98,122.59 8185.98,123.84 8203.37,125.45 8217.49,126.75 8232.96,128.16 8250.58,129.76 8268.94,131.46 8284.42,132.84 8301.35,134.41 8318.41,135.99 8330.17,137.03 8343.20,138.22 8360.79,139.87 8376.89,141.37 8390.33,142.61 8413.52,144.71 8431.16,146.30 8449.87,148.04 8466.08,149.53 8480.72,150.84 8497.40,152.35 8513.99,153.86 8530.88,155.39 8546.62,156.82 8562.96,158.30 8581.00,159.94 8598.69,161.53 8615.98,163.11 8631.99,164.56 8646.61,165.84 8660.75,167.14 8674.33,168.38 8694.82,170.27 8710.77,171.73 8725.27,173.07 8740.06,174.39 8753.24,175.61 8766.48,176.82 8783.31,178.37 8800.96,179.98 8818.38,181.56 8835.17,183.10 8852.35,184.64 8868.97,186.14 8886.65,187.72 8904.06,189.31 8921.66,190.92 8938.99,192.47 8956.37,194.04 8972.56,195.50 8978.80,196.06 8996.42,197.63 9025.23,200.24 9054.65,202.90 9078.85,205.16 9099.17,206.98 9116.86,208.57 9137.47,210.45 9155.86,212.15 9174.60,213.84 9196.30,215.82 9217.30,217.77 9239.65,219.83 9256.78,221.39 9273.70,222.94 9288.46,224.28 9305.67,225.87 9319.33,227.08 9333.48,228.40 9347.31,229.67 9360.42,230.86 9375.83,232.25 9391.63,233.69 9407.99,235.20 9422.00,236.45 9439.17,237.98 9453.52,239.29 9471.27,240.93 9483.22,242.02 9494.53,243.03 9506.13,244.08 9517.00,245.06 9530.12,246.28 9539.07,247.06 9551.82,248.22 9564.52,249.42 9576.30,250.48 9586.88,251.40 9599.32,252.54 9618.33,254.29 9643.21,256.58 9656.40,257.76 9677.68,259.70 9695.65,261.33 9717.28,263.28 9749.95,266.20 9775.86,268.50 9798.11,270.57 9828.13,273.34 9847.84,275.09 9865.15,276.68 9876.92,277.76 9890.24,278.96 9906.26,280.40 9919.13,281.60 9929.58,282.53 9941.54,283.59 9953.07,284.61 9962.92,285.53 9970.98,286.25 9982.79,287.35 9994.78,288.44 10003.83,289.28 10014.01,290.20 10022.39,290.95 10038.00,292.41 10055.30,293.99 10073.72,295.65 10092.71,297.40 10111.33,299.04 10128.47,300.61 10144.98,302.08 10158.17,303.30 10173.16,304.63 10191.28,306.26 10209.86,307.97 10227.34,309.52 10244.96,311.12 10264.19,312.88 10280.12,314.32 10296.82,315.84 10312.92,317.30 10326.97,318.59 10346.41,320.37 10364.40,322.02 10380.76,323.50 10396.29,324.91 10416.43,326.76 10436.84,328.59 10452.55,330.04 10467.50,331.42 10482.11,332.72 10496.18,334.00 10507.06,334.98 10519.14,336.09 10529.89,337.06 10540.72,338.03 10552.69,339.13 10565.20,340.25 10577.78,341.38 10590.66,342.57 10604.25,343.81 10619.74,345.25 10630.76,346.26 10642.19,347.32 10656.02,348.60 10668.82,349.77 10682.93,351.09 10696.79,352.35 10709.74,353.56 10720.51,354.54 10729.95,355.41 10745.48,356.84 10762.30,358.38 10778.21,359.82 10789.46,360.86 10803.23,362.15 10815.61,363.30 10830.67,364.65 10842.18,365.69 10852.69,366.65 10861.50,367.48 10868.80,368.14 10878.87,369.05 10891.64,370.25 10905.12,371.46 10916.32,372.47 10932.00,373.88 10941.56,374.79 10959.89,376.47 10973.27,377.70 10985.68,378.86 11003.03,380.46 11020.88,382.09 11036.13,383.50 11052.02,384.96 11063.71,386.06 11075.93,387.18 11088.13,388.30 11101.30,389.49 11116.82,390.93 11129.87,392.13 11140.86,393.12 11157.85,394.69 11172.28,396.00 11185.79,397.25 11199.24,398.46 11212.47,399.69 11229.89,401.28 11243.26,402.51 11256.01,403.68 11268.48,404.81 11279.86,405.84 11291.38,406.91 11297.72,407.47 11314.04,408.99 11329.36,410.35 11340.85,411.41 11354.90,412.69 11368.59,413.94 11383.98,415.32 11397.73,416.57 11410.18,417.70 11429.18,419.43 11446.65,420.99 11463.81,422.57 11482.51,424.26 11492.29,425.15">
        <lane id="548.0_0" index="0" disallow="all" speed="13.89" length="11538.62" width="3.66" shape="0.40,275.82 9.80,276.23 27.38,277.10 41.30,277.63 56.15,278.18 78.08,278.88 99.05,279.49 114.73,279.96 129.15,280.33 146.95,280.86 165.08,281.41 183.63,281.91 202.04,282.39 219.50,282.86 240.15,283.45 258.20,283.97 276.77,284.48 290.44,284.91 306.65,285.32 327.63,285.90 350.14,286.49 370.00,287.01 390.26,287.63 416.12,288.32 435.98,288.89 460.70,289.53 500.09,290.71 528.45,291.45 553.78,292.16 572.78,292.65 588.26,293.10 609.74,293.71 626.27,294.15 649.26,294.76 663.48,295.13 684.92,295.70 709.37,296.42 738.37,297.22 761.53,297.89 783.85,298.55 809.16,299.21 830.33,299.80 855.28,300.50 879.38,301.13 910.38,301.96 937.28,302.68 956.65,303.22 980.41,303.91 1006.82,304.64 1038.17,305.57 1073.92,306.55 1094.97,307.15 1119.83,307.83 1146.33,308.51 1173.97,309.32 1206.55,310.19 1247.81,311.32 1277.17,312.13 1309.96,312.99 1349.19,314.08 1388.70,315.19 1431.95,316.39 1451.79,316.93 1475.25,317.59 1505.44,318.42 1534.80,319.24 1561.00,319.96 1585.10,320.68 1599.84,321.07 1622.89,321.74 1643.99,322.32 1665.45,322.90 1686.56,323.45 1708.39,324.04 1729.64,324.68 1752.41,325.30 1775.20,325.98 1793.95,326.45 1818.12,327.13 1847.07,327.92 1867.82,328.46 1891.86,329.09 1910.29,329.64 1930.64,330.18 1950.15,330.76 1971.34,331.31 1990.53,331.83 2015.61,332.55 2041.49,333.27 2069.37,334.03 2102.35,334.95 2131.75,335.78 2155.09,336.39 2176.24,336.97 2190.91,337.40 2207.90,337.88 2224.21,338.30 2242.16,338.76 2254.92,339.11 2274.01,339.64 2291.90,340.16 2314.90,340.81 2337.52,341.44 2364.71,342.20 2392.27,342.98 2424.86,343.82 2461.08,344.81 2495.35,345.77 2532.88,346.77 2571.94,347.85 2602.40,348.69 2633.99,349.52 2666.36,350.45 2695.47,351.21 2718.78,351.88 2747.70,352.71 2777.69,353.52 2803.26,354.23 2822.67,354.76 2846.30,355.40 2869.18,356.02 2889.95,356.58 2909.31,357.08 2926.57,357.55 2943.10,358.04 2956.06,358.37 2977.04,358.95 3000.78,359.66 3024.89,360.36 3047.63,360.99 3066.41,361.54 3086.02,362.10 3107.18,362.74 3128.58,363.26 3151.50,364.00 3172.94,364.56 3196.17,365.24 3221.56,366.01 3244.34,366.58 3269.05,367.26 3295.64,368.04 3321.24,368.80 3346.62,369.49 3372.67,370.25 3399.13,370.98 3427.90,371.72 3456.67,372.58 3484.06,373.31 3510.99,374.03 3532.81,374.63 3560.88,375.39 3591.99,376.20 3622.40,376.97 3654.42,377.34 3688.44,377.07 3706.67,376.69 3718.70,376.32 3741.87,375.36 3763.59,374.22 3784.51,372.86 3803.85,371.32 3824.64,369.42 3843.48,367.52 3858.52,365.84 3872.36,364.22 3889.42,362.11 3905.24,360.00 3920.05,357.96 3935.17,355.91 3948.87,354.05 3962.00,352.22 3976.83,350.24 3992.24,348.15 4005.37,346.33 4020.81,344.25 4035.39,342.26 4073.34,337.05 4117.84,331.00 4141.47,327.81 4158.81,325.47 4198.53,320.03 4238.27,314.65 4266.12,310.85 4296.72,306.68 4323.90,302.99 4351.83,299.16 4380.44,295.26 4405.28,291.92 4428.86,288.72 4454.89,285.10 4481.37,281.53 4510.29,277.54 4532.41,274.54 4551.09,272.01 4570.62,269.38 4590.15,266.73 4610.72,263.92 4632.22,261.03 4654.23,258.03 4675.66,255.10 4700.49,251.68 4723.45,248.48 4745.97,245.41 4765.81,242.69 4788.85,239.54 4811.63,236.46 4831.28,233.76 4855.64,230.48 4879.43,227.23 4899.22,224.55 4919.70,221.77 4946.74,218.07 4972.60,214.55 4999.23,210.91 5025.26,207.41 5044.83,204.77 5062.59,202.33 5079.90,199.98 5106.25,196.40 5136.30,192.32 5167.18,188.11 5197.76,183.97 5227.42,179.98 5257.62,175.86 5287.44,171.82 5324.06,166.82 5361.77,161.68 5398.08,156.69 5432.39,151.96 5465.48,147.40 5501.78,142.45 5535.40,137.88 5565.48,133.80 5592.77,130.09 5622.36,126.08 5652.03,122.01 5678.80,118.36 5704.71,114.85 5732.71,111.09 5754.43,108.12 5774.38,105.39 5795.47,102.52 5818.76,99.33 5844.16,95.92 5870.07,92.38 5894.65,89.04 5926.09,84.75 5949.18,81.59 5975.42,78.02 6004.21,74.12 6031.13,70.44 6056.47,67.01 6083.94,63.27 6110.16,59.69 6123.78,57.88 6141.96,55.37 6169.03,51.72 6195.40,48.16 6221.40,44.62 6249.35,40.84 6276.22,37.23 6300.67,33.89 6322.98,30.82 6342.52,28.13 6365.10,25.07 6388.44,21.92 6411.77,18.78 6433.47,15.89 6455.15,13.05 6474.89,10.46 6494.33,7.86 6518.14,4.67 6539.27,1.97 6558.05,-0.10 6578.24,-1.98 6597.99,-3.66 6614.79,-4.92 6636.03,-6.30 6654.22,-7.27 6672.95,-8.06 6691.77,-8.67 6709.39,-8.97 6728.22,-9.15 6746.07,-9.13 6763.79,-8.97 6775.83,-8.73 6791.74,-8.35 6811.31,-7.62 6826.57,-6.87 6840.62,-6.17 6853.41,-5.37 6866.94,-4.54 6881.14,-3.52 6889.33,-2.87 6895.37,-2.40 6909.03,-1.23 6921.33,-0.16 6936.96,1.24 6953.22,2.67 6970.22,4.20 6990.00,5.89 7007.34,7.42 7025.36,9.04 7042.80,10.61 7062.56,12.40 7080.71,14.06 7098.06,15.66 7116.86,17.36 7133.55,18.87 7149.55,20.33 7161.18,21.36 7174.87,22.64 7186.40,23.69 7199.66,24.94 7215.82,26.41 7232.68,27.93 7251.17,29.63 7266.15,31.01 7282.33,32.47 7301.74,34.27 7321.12,36.00 7334.15,37.17 7350.47,38.66 7367.53,40.17 7382.65,41.56 7397.07,42.86 7414.39,44.41 7429.11,45.75 7444.72,47.12 7459.53,48.48 7473.90,49.79 7486.08,50.92 7509.93,53.12 7533.24,55.23 7556.62,57.39 7577.25,59.28 7597.01,61.06 7619.33,63.11 7640.29,65.03 7663.17,67.08 7680.29,68.66 7699.86,70.44 7718.21,72.11 7734.49,73.56 7749.79,74.95 7763.08,76.17 7778.26,77.53 7792.44,78.78 7805.84,79.99 7819.70,81.23 7834.93,82.62 7846.66,83.65 7861.24,84.99 7876.48,86.37 7893.05,87.89 7906.87,89.15 7920.08,90.35 7933.37,91.56 7947.36,92.82 7959.32,93.93 7968.97,94.76 7980.70,95.89 7998.20,97.48 8015.11,99.03 8031.35,100.54 8046.48,101.88 8061.26,103.26 8076.72,104.68 8092.57,106.11 8103.92,107.15 8115.34,108.22 8127.02,109.29 8141.61,110.63 8158.31,112.15 8172.81,113.48 8186.81,114.73 8204.21,116.34 8218.33,117.64 8233.79,119.05 8251.42,120.65 8269.77,122.35 8285.25,123.73 8302.20,125.30 8319.24,126.88 8330.99,127.92 8344.05,129.11 8361.64,130.76 8377.74,132.26 8391.16,133.50 8414.35,135.60 8432.00,137.19 8450.72,138.93 8466.91,140.42 8481.54,141.73 8498.23,143.24 8514.82,144.75 8531.71,146.28 8547.45,147.71 8563.79,149.19 8581.83,150.83 8599.52,152.42 8616.81,154.00 8632.81,155.45 8647.43,156.73 8661.59,158.03 8675.17,159.27 8695.66,161.16 8711.61,162.62 8726.10,163.96 8740.89,165.28 8754.08,166.50 8767.32,167.71 8784.15,169.26 8801.79,170.87 8819.21,172.45 8836.00,173.99 8853.17,175.53 8869.79,177.03 8887.48,178.61 8904.90,180.20 8922.49,181.81 8939.81,183.36 8957.20,184.93 8973.38,186.39 8979.62,186.95 8997.24,188.52 9026.06,191.13 9055.49,193.79 9079.69,196.05 9099.99,197.87 9117.69,199.46 9138.31,201.34 9156.70,203.04 9175.43,204.73 9197.14,206.71 9218.15,208.66 9240.49,210.72 9257.62,212.28 9274.53,213.83 9289.30,215.17 9306.50,216.76 9320.16,217.97 9334.33,219.29 9348.15,220.56 9361.25,221.75 9376.66,223.14 9392.47,224.58 9408.82,226.09 9422.82,227.34 9439.99,228.87 9454.36,230.18 9472.11,231.82 9484.05,232.91 9495.35,233.92 9506.96,234.97 9517.84,235.95 9530.95,237.17 9539.89,237.95 9552.67,239.11 9565.36,240.31 9577.11,241.37 9587.70,242.29 9600.16,243.43 9619.17,245.18 9644.04,247.47 9657.23,248.65 9678.51,250.59 9696.48,252.22 9718.10,254.17 9750.77,257.09 9776.69,259.39 9798.96,261.46 9828.96,264.23 9848.67,265.98 9865.99,267.57 9877.75,268.65 9891.06,269.85 9907.10,271.29 9919.97,272.49 9930.39,273.42 9942.35,274.48 9953.90,275.50 9963.76,276.42 9971.82,277.14 9983.63,278.24 9995.62,279.33 10004.67,280.17 10014.83,281.09 10023.23,281.84 10038.84,283.30 10056.13,284.88 10074.55,286.54 10093.53,288.29 10112.15,289.93 10129.30,291.50 10145.81,292.97 10159.00,294.19 10173.98,295.52 10192.11,297.15 10210.69,298.86 10228.16,300.41 10245.79,302.01 10265.02,303.77 10280.95,305.21 10297.65,306.73 10313.75,308.19 10327.81,309.48 10347.25,311.26 10365.23,312.91 10381.59,314.39 10397.13,315.80 10417.26,317.65 10437.67,319.48 10453.39,320.93 10468.33,322.31 10482.93,323.61 10497.01,324.89 10507.89,325.87 10519.97,326.98 10530.71,327.95 10541.55,328.92 10553.52,330.02 10566.02,331.14 10578.61,332.27 10591.50,333.46 10605.09,334.70 10620.59,336.14 10631.60,337.15 10643.04,338.21 10656.86,339.49 10669.67,340.66 10683.77,341.98 10697.63,343.24 10710.58,344.45 10721.35,345.43 10730.79,346.30 10746.32,347.73 10763.13,349.27 10779.05,350.71 10790.31,351.75 10804.08,353.04 10816.44,354.19 10831.49,355.54 10843.01,356.58 10853.54,357.54 10862.35,358.37 10869.63,359.03 10879.71,359.94 10892.48,361.14 10905.94,362.35 10917.14,363.36 10932.84,364.77 10942.41,365.68 10960.73,367.36 10974.12,368.59 10986.53,369.75 11003.87,371.35 11021.72,372.98 11036.97,374.39 11052.87,375.85 11064.56,376.95 11076.77,378.07 11088.96,379.19 11102.14,380.38 11117.67,381.82 11130.70,383.02 11141.70,384.01 11158.69,385.58 11173.12,386.89 11186.62,388.14 11200.08,389.35 11213.31,390.58 11230.73,392.17 11244.10,393.40 11256.84,394.57 11269.31,395.70 11280.70,396.73 11292.21,397.80 11298.56,398.36 11314.87,399.88 11330.19,401.24 11341.69,402.30 11355.73,403.58 11369.42,404.83 11384.81,406.21 11398.56,407.46 11411.01,408.59 11430.01,410.32 11447.48,411.88 11464.64,413.46 11483.34,415.15 11493.12,416.04" type="shoulder"/>
        <lane id="548.0_1" index="1" speed="13.89" length="11538.62" width="3.66" shape="0.24,279.48 9.62,279.89 27.22,280.76 41.16,281.28 56.02,281.83 77.97,282.54 98.94,283.15 114.63,283.62 129.05,283.99 146.84,284.52 164.98,285.07 183.53,285.57 201.94,286.05 219.40,286.52 240.04,287.11 258.10,287.63 276.66,288.14 290.34,288.57 306.55,288.98 327.53,289.56 350.05,290.15 369.90,290.67 390.15,291.29 416.01,291.98 435.88,292.55 460.60,293.19 499.99,294.37 528.35,295.11 553.68,295.82 572.68,296.31 588.15,296.76 609.63,297.37 626.17,297.81 649.17,298.42 663.39,298.79 684.82,299.36 709.27,300.08 738.27,300.88 761.42,301.55 783.75,302.21 809.06,302.87 830.23,303.46 855.18,304.16 879.28,304.79 910.28,305.62 937.18,306.34 956.55,306.88 980.31,307.57 1006.71,308.30 1038.07,309.23 1073.82,310.21 1094.87,310.81 1119.73,311.49 1146.23,312.17 1173.87,312.98 1206.45,313.85 1247.71,314.98 1277.07,315.79 1309.86,316.65 1349.09,317.74 1388.60,318.85 1431.84,320.05 1451.69,320.59 1475.15,321.25 1505.34,322.08 1534.70,322.90 1560.90,323.62 1585.00,324.34 1599.74,324.73 1622.79,325.40 1643.89,325.98 1665.35,326.56 1686.46,327.11 1708.29,327.70 1729.54,328.34 1752.31,328.96 1775.10,329.64 1793.85,330.11 1818.01,330.79 1846.97,331.58 1867.73,332.12 1891.76,332.75 1910.19,333.30 1930.54,333.84 1950.05,334.42 1971.24,334.97 1990.43,335.49 2015.51,336.21 2041.39,336.93 2069.26,337.69 2102.25,338.61 2131.65,339.44 2154.99,340.05 2176.14,340.63 2190.80,341.06 2207.80,341.54 2224.11,341.96 2242.07,342.42 2254.81,342.77 2273.91,343.30 2291.80,343.82 2314.80,344.47 2337.42,345.10 2364.61,345.86 2392.17,346.64 2424.76,347.48 2460.97,348.47 2495.25,349.43 2532.78,350.43 2571.83,351.51 2602.30,352.35 2633.89,353.18 2666.26,354.11 2695.37,354.87 2718.67,355.54 2747.60,356.37 2777.59,357.18 2803.15,357.89 2822.57,358.42 2846.20,359.06 2869.08,359.68 2889.86,360.24 2909.21,360.74 2926.47,361.21 2943.00,361.70 2955.96,362.03 2976.93,362.61 3000.67,363.32 3024.79,364.02 3047.53,364.65 3066.30,365.20 3085.91,365.76 3107.08,366.40 3128.48,366.92 3151.39,367.66 3172.84,368.22 3196.06,368.90 3221.45,369.67 3244.25,370.24 3268.95,370.92 3295.54,371.70 3321.14,372.46 3346.52,373.15 3372.57,373.91 3399.03,374.64 3427.80,375.38 3456.57,376.24 3483.96,376.97 3510.89,377.69 3532.71,378.29 3560.78,379.05 3591.89,379.86 3622.33,380.63 3654.41,381.00 3688.49,380.73 3706.76,380.35 3718.83,379.97 3742.05,379.02 3763.80,377.87 3784.78,376.51 3804.17,374.97 3824.99,373.07 3843.86,371.16 3858.94,369.48 3872.80,367.85 3889.88,365.74 3905.74,363.63 3920.55,361.59 3935.66,359.54 3949.37,357.67 3962.49,355.85 3977.32,353.87 3992.74,351.78 4005.86,349.96 4021.31,347.88 4035.89,345.89 4073.84,340.68 4118.34,334.63 4141.96,331.44 4159.30,329.10 4199.02,323.66 4238.76,318.28 4266.61,314.48 4297.21,310.31 4324.39,306.62 4352.33,302.79 4380.94,298.89 4405.77,295.55 4429.36,292.34 4455.39,288.73 4481.86,285.16 4510.79,281.17 4532.91,278.17 4551.58,275.64 4571.11,273.01 4590.64,270.36 4611.22,267.55 4632.71,264.66 4654.73,261.66 4676.16,258.72 4700.99,255.30 4723.95,252.10 4746.46,249.04 4766.31,246.32 4789.34,243.17 4812.12,240.09 4831.77,237.39 4856.14,234.11 4879.92,230.86 4899.72,228.18 4920.19,225.40 4947.23,221.70 4973.09,218.18 4999.73,214.54 5025.75,211.04 5045.32,208.40 5063.09,205.96 5080.39,203.61 5106.74,200.03 5136.79,195.95 5167.67,191.74 5198.25,187.60 5227.92,183.61 5258.11,179.49 5287.93,175.45 5324.55,170.45 5362.27,165.31 5398.58,160.31 5432.89,155.58 5465.98,151.03 5502.27,146.08 5535.89,141.51 5565.97,137.43 5593.26,133.72 5622.85,129.71 5652.53,125.64 5679.29,121.99 5705.20,118.48 5733.20,114.72 5754.93,111.75 5774.87,109.02 5795.96,106.15 5819.26,102.96 5844.66,99.55 5870.56,96.01 5895.14,92.67 5926.59,88.38 5949.67,85.22 5975.91,81.65 6004.70,77.75 6031.62,74.07 6056.96,70.64 6084.43,66.90 6110.65,63.32 6124.27,61.51 6142.45,59.00 6169.52,55.35 6195.90,51.79 6221.89,48.25 6249.84,44.47 6276.71,40.86 6301.17,37.52 6323.47,34.44 6343.01,31.76 6365.59,28.70 6388.93,25.55 6412.25,22.41 6433.95,19.52 6455.63,16.68 6475.37,14.09 6494.81,11.49 6518.61,8.30 6539.70,5.61 6558.42,3.54 6578.57,1.66 6598.29,-0.01 6615.05,-1.27 6636.25,-2.65 6654.39,-3.61 6673.09,-4.41 6691.86,-5.01 6709.44,-5.31 6728.24,-5.49 6746.05,-5.47 6763.73,-5.31 6775.75,-5.07 6791.63,-4.69 6811.15,-3.96 6826.39,-3.21 6840.42,-2.51 6853.18,-1.72 6866.70,-0.89 6880.87,0.13 6889.05,0.78 6895.07,1.25 6908.71,2.42 6921.01,3.48 6936.64,4.88 6952.90,6.31 6969.90,7.84 6989.69,9.54 7007.02,11.06 7025.04,12.68 7042.47,14.25 7062.23,16.04 7080.38,17.70 7097.73,19.30 7116.53,21.00 7133.22,22.51 7149.23,23.97 7160.84,25.00 7174.53,26.28 7186.06,27.33 7199.33,28.58 7215.49,30.05 7232.35,31.57 7250.84,33.27 7265.82,34.65 7281.99,36.11 7301.41,37.91 7320.79,39.64 7333.82,40.81 7350.14,42.30 7367.21,43.81 7382.32,45.20 7396.74,46.50 7414.06,48.05 7428.78,49.39 7444.39,50.76 7459.19,52.12 7473.57,53.43 7485.74,54.56 7509.59,56.76 7532.90,58.87 7556.29,61.03 7576.92,62.92 7596.68,64.70 7618.99,66.75 7639.96,68.67 7662.84,70.72 7679.95,72.30 7699.53,74.08 7717.89,75.75 7734.17,77.20 7749.45,78.59 7762.75,79.81 7777.94,81.17 7792.11,82.42 7805.51,83.63 7819.37,84.87 7834.60,86.26 7846.34,87.29 7860.91,88.63 7876.15,90.01 7892.71,91.53 7906.54,92.79 7919.75,93.99 7933.04,95.20 7947.02,96.46 7958.99,97.57 7968.63,98.40 7980.36,99.53 7997.87,101.12 8014.78,102.67 8031.02,104.18 8046.15,105.52 8060.92,106.90 8076.39,108.32 8092.24,109.75 8103.58,110.79 8115.00,111.86 8126.68,112.93 8141.27,114.27 8157.97,115.79 8172.48,117.12 8186.48,118.37 8203.88,119.98 8217.99,121.28 8233.46,122.69 8251.08,124.29 8269.44,125.99 8284.92,127.37 8301.86,128.94 8318.91,130.52 8330.66,131.56 8343.71,132.75 8361.30,134.40 8377.40,135.90 8390.83,137.14 8414.02,139.24 8431.66,140.83 8450.38,142.57 8466.58,144.06 8481.22,145.37 8497.90,146.88 8514.49,148.39 8531.38,149.92 8547.12,151.35 8563.46,152.83 8581.50,154.47 8599.19,156.06 8616.48,157.64 8632.48,159.09 8647.10,160.37 8661.25,161.67 8674.84,162.91 8695.33,164.80 8711.28,166.26 8725.77,167.60 8740.56,168.92 8753.75,170.14 8766.98,171.35 8783.81,172.90 8801.46,174.51 8818.88,176.09 8835.67,177.63 8852.84,179.17 8869.46,180.67 8887.15,182.25 8904.56,183.84 8922.16,185.45 8939.48,187.00 8956.87,188.57 8973.06,190.03 8979.29,190.59 8996.92,192.16 9025.73,194.77 9055.15,197.43 9079.35,199.69 9099.66,201.51 9117.36,203.10 9137.97,204.98 9156.36,206.68 9175.10,208.37 9196.81,210.35 9217.81,212.30 9240.15,214.36 9257.28,215.92 9274.20,217.47 9288.96,218.81 9306.17,220.40 9319.83,221.61 9333.99,222.93 9347.81,224.20 9360.92,225.39 9376.33,226.78 9392.13,228.22 9408.49,229.73 9422.49,230.98 9439.67,232.51 9454.03,233.82 9471.78,235.46 9483.72,236.55 9495.02,237.56 9506.63,238.61 9517.50,239.59 9530.62,240.81 9539.56,241.59 9552.33,242.75 9565.03,243.95 9576.79,245.01 9587.37,245.93 9599.83,247.07 9618.84,248.82 9643.71,251.11 9656.90,252.29 9678.18,254.23 9696.15,255.86 9717.77,257.81 9750.44,260.73 9776.36,263.03 9798.62,265.10 9828.63,267.87 9848.34,269.62 9865.66,271.21 9877.42,272.29 9890.74,273.49 9906.76,274.93 9919.63,276.13 9930.07,277.06 9942.03,278.12 9953.57,279.14 9963.42,280.06 9971.48,280.78 9983.30,281.88 9995.28,282.97 10004.33,283.81 10014.51,284.73 10022.90,285.48 10038.51,286.94 10055.80,288.52 10074.22,290.18 10093.21,291.93 10111.82,293.57 10128.97,295.14 10145.48,296.61 10158.67,297.83 10173.65,299.16 10191.78,300.79 10210.36,302.50 10227.83,304.05 10245.46,305.65 10264.69,307.41 10280.62,308.85 10297.32,310.37 10313.42,311.83 10327.47,313.12 10346.91,314.90 10364.90,316.55 10381.26,318.03 10396.79,319.44 10416.93,321.29 10437.34,323.12 10453.06,324.57 10468.00,325.95 10482.61,327.25 10496.68,328.53 10507.56,329.51 10519.64,330.62 10530.38,331.59 10541.22,332.56 10553.19,333.66 10565.69,334.78 10578.28,335.91 10591.16,337.10 10604.76,338.34 10620.25,339.78 10631.27,340.79 10642.70,341.85 10656.53,343.13 10669.33,344.30 10683.44,345.62 10697.30,346.88 10710.25,348.09 10721.01,349.07 10730.46,349.94 10745.99,351.37 10762.80,352.91 10778.71,354.35 10789.97,355.39 10803.74,356.68 10816.11,357.83 10831.16,359.18 10842.68,360.22 10853.20,361.18 10862.01,362.01 10869.30,362.67 10879.38,363.58 10892.15,364.78 10905.61,365.99 10916.82,367.00 10932.51,368.41 10942.07,369.32 10960.39,371.00 10973.78,372.23 10986.19,373.39 11003.53,374.99 11021.39,376.62 11036.64,378.03 11052.53,379.49 11064.22,380.59 11076.43,381.71 11088.63,382.83 11101.80,384.02 11117.33,385.46 11130.37,386.66 11141.36,387.65 11158.35,389.22 11172.78,390.53 11186.29,391.78 11199.74,392.99 11212.98,394.22 11230.39,395.81 11243.77,397.04 11256.51,398.21 11268.98,399.34 11280.36,400.37 11291.88,401.44 11298.22,402.00 11314.54,403.52 11329.86,404.88 11341.35,405.94 11355.40,407.22 11369.09,408.47 11384.48,409.85 11398.23,411.10 11410.68,412.23 11429.68,413.96 11447.15,415.52 11464.31,417.10 11483.01,418.79 11492.79,419.68"/>