<?xml version='1.0' encoding='utf-8'?>
<edges>
    <edge id="201.0" from="junction_15" to="junction_78" numLanes="3" speed="13.89" type="town" shape="727078.87,3286886.66 726974.63,3286877.30 726974.63,3286877.30 726887.10,3286869.41 726887.10,3286869.41 726818.79,3286863.31 726818.79,3286863.31 726754.63,3286857.56 726754.63,3286857.56 726706.94,3286853.28 726706.94,3286853.28 726657.69,3286848.78 726657.69,3286848.78 726604.76,3286843.94 726604.76,3286843.94 726545.35,3286838.47 726545.35,3286838.47 726495.54,3286834.03 726495.54,3286834.03 726437.55,3286828.88 726437.55,3286828.88 726399.77,3286825.49 726399.77,3286825.49 726351.29,3286821.09 726351.29,3286821.09 726287.23,3286815.36 726287.23,3286815.36 726185.25,3286806.11 726185.25,3286806.11 726121.10,3286800.26 726121.10,3286800.26 726055.04,3286794.22 726055.04,3286794.22 725992.87,3286788.53 725992.87,3286788.53 725935.22,3286783.29 725935.22,3286783.29 725819.87,3286772.85 725819.87,3286772.85 725753.25,3286766.81 725753.25,3286766.81 725704.34,3286762.39 725704.34,3286762.39 725647.01,3286757.16 725647.01,3286757.16 725598.99,3286752.71 725598.99,3286752.71 725559.09,3286749.08 725559.09,3286749.08 725488.83,3286742.70 725488.83,3286742.70 725431.17,3286737.49 725431.17,3286737.49 725374.41,3286732.41 725374.41,3286732.41 725308.94,3286726.46 725308.94,3286726.46 725276.48,3286723.53 725276.48,3286723.53 725247.50,3286720.85 725247.50,3286720.85 725189.13,3286715.52 725189.13,3286715.52 725140.87,3286711.10 725140.87,3286711.10 725065.76,3286704.32 725065.76,3286704.32 724968.01,3286695.40 724968.01,3286695.40 724964.06,3286695.04 724964.06,3286695.04 724949.83,3286693.76 724949.83,3286693.76 724938.46,3286692.73 724938.46,3286692.73 724926.05,3286691.59 724926.05,3286691.59 724905.24,3286689.68 724905.24,3286689.68 724888.13,3286688.12 724888.13,3286688.12 724853.76,3286684.96 724853.76,3286684.96 724825.00,3286682.33 724825.00,3286682.33 724791.78,3286679.28 724791.78,3286679.28 724766.49,3286676.96 724766.49,3286676.96 724736.46,3286674.25 724736.46,3286674.25 724717.74,3286672.55 724717.74,3286672.55 724690.74,3286670.13 724690.74,3286670.13 724652.30,3286666.63 724652.30,3286666.63 724614.15,3286663.16 724614.15,3286663.16 724578.67,3286659.92 724578.67,3286659.92 724531.30,3286655.63 724531.30,3286655.63 724485.00,3286651.40 724485.00,3286651.40 724475.16,3286650.51 724475.16,3286650.51 724464.33,3286649.52 724464.33,3286649.52 724454.19,3286648.61 724454.19,3286648.61 724440.97,3286647.39 724440.97,3286647.39 724424.92,3286645.91 724424.92,3286645.91 724417.61,3286645.22 724417.61,3286645.22 724404.12,3286643.99 724404.12,3286643.99 724392.20,3286642.90 724392.20,3286642.90 724380.84,3286641.88 724380.84,3286641.88 724365.60,3286640.53 724365.60,3286640.53 724346.38,3286638.80 724346.38,3286638.80 724327.41,3286637.13 724327.41,3286637.13 724311.48,3286635.73 724311.48,3286635.73 724292.71,3286634.08 724292.71,3286634.08 724269.50,3286631.97 724269.50,3286631.97 724242.17,3286629.50 724242.17,3286629.50 724215.53,3286627.08 724215.53,3286627.08 724192.25,3286624.95 724192.25,3286624.95 724177.49,3286623.57 724177.49,3286623.57 724168.46,3286622.74 724168.46,3286622.74 724161.04,3286622.04 724161.04,3286622.04 724148.09,3286620.82 724148.09,3286620.82 724131.70,3286619.28 724131.70,3286619.28 724119.46,3286618.16 724119.46,3286618.16 724103.98,3286616.76 724103.98,3286616.76 724092.29,3286615.69 724092.29,3286615.69 724076.89,3286614.27 724076.89,3286614.27 724062.10,3286612.89 724062.10,3286612.89 724048.57,3286611.66 724048.57,3286611.66 724032.53,3286610.22 724032.53,3286610.22 724018.55,3286608.95 724018.55,3286608.95 724006.82,3286607.90 724006.82,3286607.90 723998.61,3286607.15 723998.61,3286607.15 723989.07,3286606.27 723989.07,3286606.27 723975.98,3286605.10 723975.98,3286605.10 723961.94,3286603.84 723961.94,3286603.84 723943.66,3286602.17 723943.66,3286602.17 723924.19,3286600.42 723924.19,3286600.42 723910.34,3286599.15 723910.34,3286599.15 723897.82,3286598.05 723897.82,3286598.05 723876.57,3286596.14 723876.57,3286596.14 723863.09,3286594.87 723863.09,3286594.87 723844.02,3286593.17 723844.02,3286593.17 723828.36,3286591.71 723828.36,3286591.71 723809.91,3286590.07 723809.91,3286590.07 723791.95,3286588.43 723791.95,3286588.43 723769.55,3286586.41 723769.55,3286586.41 723736.96,3286583.47 723736.96,3286583.47 723716.48,3286581.61 723716.48,3286581.61 723693.92,3286579.55 723693.92,3286579.55 723675.65,3286577.90 723675.65,3286577.90 723655.35,3286576.06 723655.35,3286576.06 723634.96,3286574.19 723634.96,3286574.19 723609.34,3286571.86 723609.34,3286571.86 723588.30,3286569.94 723588.30,3286569.94 723577.20,3286568.92 723577.20,3286568.92 723564.41,3286567.73 723564.41,3286567.73 723550.91,3286566.48 723550.91,3286566.48 723539.65,3286565.43 723539.65,3286565.43 723524.84,3286564.12 723524.84,3286564.12 723507.76,3286562.58 723507.76,3286562.58 723490.47,3286561.04 723490.47,3286561.04 723468.68,3286559.04 723468.68,3286559.04 723445.60,3286556.90 723445.60,3286556.90 723421.17,3286554.62 723421.17,3286554.62 723406.23,3286553.26 723406.23,3286553.26 723379.35,3286550.77 723379.35,3286550.77 723363.51,3286549.29 723363.51,3286549.29 723345.73,3286547.70 723345.73,3286547.70 723322.80,3286545.63 723322.80,3286545.63 723298.39,3286543.41 723298.39,3286543.41 723270.46,3286540.90 723270.46,3286540.90 723230.88,3286537.33 723230.88,3286537.33 723191.15,3286533.73 723191.15,3286533.73 723138.16,3286528.93 723138.16,3286528.93 723104.28,3286525.85 723104.28,3286525.85 723075.84,3286523.21 723075.84,3286523.21 723046.73,3286520.54 723046.73,3286520.54 723010.62,3286517.20 723010.62,3286517.20 722974.20,3286513.94 722974.20,3286513.94 722949.24,3286511.65 722949.24,3286511.65 722922.38,3286509.28 722922.38,3286509.28 722898.92,3286507.14 722898.92,3286507.14 722886.69,3286506.05 722886.69,3286506.05 722872.56,3286504.75 722872.56,3286504.75 722847.57,3286502.52 722847.57,3286502.52 722819.55,3286500.01 722819.55,3286500.01 722788.13,3286497.15 722788.13,3286497.15 722767.34,3286495.25 722767.34,3286495.25 722756.80,3286494.30 722756.80,3286494.30 722740.91,3286492.85 722740.91,3286492.85 722723.93,3286491.30 722723.93,3286491.30 722700.70,3286489.18 722700.70,3286489.18 722682.47,3286487.48 722682.47,3286487.48 722657.38,3286485.23 722657.38,3286485.23 722640.16,3286483.64 722640.16,3286483.64 722605.78,3286480.51 722605.78,3286480.51 722580.52,3286478.22 722580.52,3286478.22 722562.25,3286476.67 722562.25,3286476.67 722542.38,3286475.07 722542.38,3286475.07 722527.92,3286474.03 722527.92,3286474.03 722506.56,3286472.77 722506.56,3286472.77 722487.12,3286471.70 722487.12,3286471.70 722475.33,3286471.09 722475.33,3286471.09 722455.91,3286470.34 722455.91,3286470.34 722435.73,3286469.84 722435.73,3286469.84 722422.56,3286469.62 722422.56,3286469.62 722407.33,3286469.57 722407.33,3286469.57 722393.73,3286469.59 722393.73,3286469.59 722378.15,3286469.73 722378.15,3286469.73 722366.35,3286470.02 722366.35,3286470.02 722351.62,3286470.42 722351.62,3286470.42 722333.46,3286471.07 722333.46,3286471.07 722316.71,3286471.80 722316.71,3286471.80 722295.85,3286472.97 722295.85,3286472.97 722280.99,3286473.92 722280.99,3286473.92 722271.40,3286474.61 722271.40,3286474.61 722259.23,3286475.57 722259.23,3286475.57 722241.27,3286477.06 722241.27,3286477.06 722224.76,3286478.63 722224.76,3286478.63 722204.71,3286480.87 722204.71,3286480.87 722181.95,3286483.68 722181.95,3286483.68 722163.06,3286486.07 722163.06,3286486.07 722143.76,3286488.67 722143.76,3286488.67 722130.97,3286490.44 722130.97,3286490.44 722114.42,3286492.70 722114.42,3286492.70 722090.52,3286496.00 722090.52,3286496.00 722068.88,3286498.98 722068.88,3286498.98 722043.86,3286502.42 722043.86,3286502.42 722021.61,3286505.49 722021.61,3286505.49 722000.21,3286508.40 722000.21,3286508.40 721971.96,3286512.30 721971.96,3286512.30 721945.72,3286515.89 721945.72,3286515.89 721920.04,3286519.40 721920.04,3286519.40 721892.40,3286523.21 721892.40,3286523.21 721872.25,3286525.97 721872.25,3286525.97 721860.62,3286527.57 721860.62,3286527.57 721849.92,3286529.07 721849.92,3286529.07 721831.67,3286531.62 721831.67,3286531.62 721820.04,3286533.19 721820.04,3286533.19 721804.49,3286535.31 721804.49,3286535.31 721782.79,3286538.28 721782.79,3286538.28 721755.91,3286541.96 721755.91,3286541.96 721730.49,3286545.42 721730.49,3286545.42 721706.93,3286548.63 721706.93,3286548.63 721684.29,3286551.68 721684.29,3286551.68 721661.38,3286554.81 721661.38,3286554.81 721633.02,3286558.70 721633.02,3286558.70 721605.64,3286562.42 721605.64,3286562.42 721582.86,3286565.51 721582.86,3286565.51 721559.31,3286568.70 721559.31,3286568.70 721528.33,3286572.91 721528.33,3286572.91 721511.64,3286575.15 721511.64,3286575.15 721487.52,3286578.42 721487.52,3286578.42 721461.93,3286581.93 721461.93,3286581.93 721438.25,3286585.21 721438.25,3286585.21 721410.72,3286588.92 721410.72,3286588.92 721385.50,3286592.37 721385.50,3286592.37 721363.93,3286595.34 721363.93,3286595.34 721344.03,3286598.10 721344.03,3286598.10 721323.58,3286600.95 721323.58,3286600.95 721303.84,3286603.62 721303.84,3286603.62 721283.18,3286606.43 721283.18,3286606.43 721261.07,3286609.42 721261.07,3286609.42 721242.35,3286611.92 721242.35,3286611.92 721216.25,3286615.46 721216.25,3286615.46 721192.22,3286618.70 721192.22,3286618.70 721177.86,3286620.61 721177.86,3286620.61 721157.75,3286623.32 721157.75,3286623.32 721144.28,3286625.18 721144.28,3286625.18 721123.42,3286627.99 721123.42,3286627.99 721107.22,3286630.20 721107.22,3286630.20 721099.30,3286631.27 721099.30,3286631.27 721086.47,3286633.03 721086.47,3286633.03 721069.07,3286635.39 721069.07,3286635.39 721050.42,3286637.93 721050.42,3286637.93 721023.58,3286641.61 721023.58,3286641.61 721000.95,3286644.73 721000.95,3286644.73 720976.29,3286648.08 720976.29,3286648.08 720958.92,3286650.43 720958.92,3286650.43 720941.76,3286652.72 720941.76,3286652.72 720919.04,3286655.76 720919.04,3286655.76 720891.01,3286659.50 720891.01,3286659.50 720863.91,3286663.12 720863.91,3286663.12 720831.69,3286667.46 720831.69,3286667.46 720813.30,3286669.96 720813.30,3286669.96 720796.47,3286672.24 720796.47,3286672.24 720784.04,3286673.93 720784.04,3286673.93 720762.22,3286676.91 720762.22,3286676.91 720747.22,3286678.97 720747.22,3286678.97 720726.46,3286681.75 720726.46,3286681.75 720700.89,3286685.23 720700.89,3286685.23 720672.90,3286689.07 720672.90,3286689.07 720634.91,3286694.25 720634.91,3286694.25 720602.43,3286698.69 720602.43,3286698.69 720577.53,3286702.13 720577.53,3286702.13 720556.78,3286704.99 720556.78,3286704.99 720532.26,3286708.31 720532.26,3286708.31 720512.23,3286711.02 720512.23,3286711.02 720489.46,3286714.12 720489.46,3286714.12 720471.80,3286716.50 720471.80,3286716.50 720448.95,3286719.58 720448.95,3286719.58 720425.50,3286722.74 720425.50,3286722.74 720402.70,3286725.86 720402.70,3286725.86 720381.00,3286728.80 720381.00,3286728.80 720361.74,3286731.43 720361.74,3286731.43 720340.59,3286734.31 720340.59,3286734.31 720315.87,3286737.66 720315.87,3286737.66 720289.61,3286741.19 720289.61,3286741.19 720268.89,3286744.02 720268.89,3286744.02 720250.88,3286746.48 720250.88,3286746.48 720236.42,3286748.46 720236.42,3286748.46 720223.73,3286750.20 720223.73,3286750.20 720208.42,3286752.31 720208.42,3286752.31 720197.48,3286753.82 720197.48,3286753.82 720182.90,3286755.85 720182.90,3286755.85 720166.98,3286758.04 720166.98,3286758.04 720151.43,3286760.16 720151.43,3286760.16 720137.51,3286762.05 720137.51,3286762.05 720126.17,3286763.59 720126.17,3286763.59 720115.24,3286765.08 720115.24,3286765.08 720103.66,3286766.65 720103.66,3286766.65 720089.97,3286768.52 720089.97,3286768.52 720074.84,3286770.57 720074.84,3286770.57 720058.46,3286772.81 720058.46,3286772.81 720041.72,3286775.09 720041.72,3286775.09 720024.46,3286777.41 720024.46,3286777.41 720008.75,3286779.52 720008.75,3286779.52 719995.56,3286781.29 719995.56,3286781.29 719979.47,3286783.46 719979.47,3286783.46 719959.19,3286786.22 719959.19,3286786.22 719943.47,3286788.35 719943.47,3286788.35 719927.61,3286790.50 719927.61,3286790.50 719911.08,3286792.78 719911.08,3286792.78 719897.27,3286794.67 719897.27,3286794.67 719880.62,3286796.96 719880.62,3286796.96 719871.08,3286798.24 719871.08,3286798.24 719859.47,3286799.82 719859.47,3286799.82 719850.19,3286801.09 719850.19,3286801.09 719838.71,3286802.65 719838.71,3286802.65 719823.16,3286804.73 719823.16,3286804.73 719807.07,3286806.92 719807.07,3286806.92 719787.09,3286809.62 719787.09,3286809.62 719770.01,3286811.95 719770.01,3286811.95 719757.56,3286813.64 719757.56,3286813.64 719747.08,3286815.06 719747.08,3286815.06 719735.84,3286816.59 719735.84,3286816.59 719719.83,3286818.76 719719.83,3286818.76 719704.25,3286820.90 719704.25,3286820.90 719687.25,3286823.20 719687.25,3286823.20 719679.18,3286824.31 719679.18,3286824.31 719665.53,3286826.15 719665.53,3286826.15 719652.34,3286827.93 719652.34,3286827.93 719636.87,3286830.02 719636.87,3286830.02 719622.69,3286831.92 719622.69,3286831.92 719611.84,3286833.35 719611.84,3286833.35 719598.11,3286835.14 719598.11,3286835.14 719585.57,3286836.77 719585.57,3286836.77 719574.29,3286838.23 719574.29,3286838.23 719562.97,3286839.69 719562.97,3286839.69 719551.76,3286841.16 719551.76,3286841.16 719542.76,3286842.29 719542.76,3286842.29 719531.99,3286843.66 719531.99,3286843.66 719518.01,3286845.32 719518.01,3286845.32 719505.99,3286846.61 719505.99,3286846.61 719497.08,3286847.56 719497.08,3286847.56 719486.84,3286848.59 719486.84,3286848.59 719475.48,3286849.63 719475.48,3286849.63 719464.24,3286850.51 719464.24,3286850.51 719451.22,3286851.39 719451.22,3286851.39 719439.77,3286852.08 719439.77,3286852.08 719427.70,3286852.77 719427.70,3286852.77 719414.80,3286853.52 719414.80,3286853.52 719404.49,3286854.10 719404.49,3286854.10 719394.56,3286854.63 719394.56,3286854.63 719385.38,3286855.12 719385.38,3286855.12 719376.89,3286855.47 719376.89,3286855.47 719363.13,3286855.87 719363.13,3286855.87 719352.24,3286856.03 719352.24,3286856.03 719342.49,3286856.09 719342.49,3286856.09 719330.80,3286856.09 719330.80,3286856.09 719318.98,3286856.03 719318.98,3286856.03 719307.69,3286855.96 719307.69,3286855.96 719301.48,3286855.95 719301.48,3286855.95 719297.39,3286855.89 719297.39,3286855.89 719284.90,3286855.77 719284.90,3286855.77 719278.04,3286855.68 719278.04,3286855.68 719272.60,3286855.60 719272.60,3286855.60 719267.11,3286855.47 719267.11,3286855.47 719257.79,3286855.30 719257.79,3286855.30 719247.65,3286855.05 719247.65,3286855.05 719237.40,3286854.80 719237.40,3286854.80 719225.72,3286854.50 719225.72,3286854.50 719216.25,3286854.24 719216.25,3286854.24 719210.20,3286854.10 719210.20,3286854.10 719205.07,3286853.96 719205.07,3286853.96 719198.34,3286853.80 719198.34,3286853.80 719190.11,3286853.55 719190.11,3286853.55 719181.62,3286853.33 719181.62,3286853.33 719174.20,3286853.15 719174.20,3286853.15 719168.26,3286852.99 719168.26,3286852.99 719159.84,3286852.75 719159.84,3286852.75 719149.38,3286852.45 719149.38,3286852.45 719138.44,3286852.16 719138.44,3286852.16 719131.25,3286851.94 719131.25,3286851.94 719125.34,3286851.80 719125.34,3286851.80 719116.56,3286851.55 719116.56,3286851.55 719106.82,3286851.28 719106.82,3286851.28 719095.01,3286850.94 719095.01,3286850.94 719082.92,3286850.60 719082.92,3286850.60 719071.58,3286850.28 719071.58,3286850.28 719060.90,3286849.98 719060.90,3286849.98 719051.79,3286849.75 719051.79,3286849.75 719042.34,3286849.45 719042.34,3286849.45 719031.91,3286849.17 719031.91,3286849.17 719020.75,3286848.85 719020.75,3286848.85 719009.19,3286848.50 719009.19,3286848.50 718997.40,3286848.16 718997.40,3286848.16 718981.63,3286847.70 718981.63,3286847.70 718962.11,3286847.16 718962.11,3286847.16 718943.29,3286846.61 718943.29,3286846.61 718928.58,3286846.19 718928.58,3286846.19 718915.70,3286845.85 718915.70,3286845.85 718903.99,3286845.52 718903.99,3286845.52 718894.53,3286845.26 718894.53,3286845.26 718883.57,3286844.99 718883.57,3286844.99 718876.74,3286844.78 718876.74,3286844.78 718865.90,3286844.50 718865.90,3286844.50 718854.97,3286844.24 718854.97,3286844.24 718846.99,3286844.01 718846.99,3286844.01 718838.10,3286843.75 718838.10,3286843.75 718826.47,3286843.43 718826.47,3286843.43 718810.98,3286842.98 718810.98,3286842.98 718795.35,3286842.54 718795.35,3286842.54 718777.45,3286842.05 718777.45,3286842.05 718766.84,3286841.77 718766.84,3286841.77 718758.42,3286841.52 718758.42,3286841.52 718746.84,3286841.20 718746.84,3286841.20 718736.40,3286840.93 718736.40,3286840.93 718721.94,3286840.52 718721.94,3286840.52 718705.86,3286840.09 718705.86,3286840.09 718692.60,3286839.75 718692.60,3286839.75 718675.20,3286839.25 718675.20,3286839.25 718658.15,3286838.77 718658.15,3286838.77 718640.20,3286838.28 718640.20,3286838.28 718626.54,3286837.91 718626.54,3286837.91 718617.11,3286837.61 718617.11,3286837.61 718609.15,3286837.37 718609.15,3286837.37 718600.44,3286837.12 718600.44,3286837.12 718586.67,3286836.77 718586.67,3286836.77 718572.44,3286836.37 718572.44,3286836.37 718559.77,3286836.02 718559.77,3286836.02 718549.08,3286835.74 718549.08,3286835.74 718539.79,3286835.48 718539.79,3286835.48 718529.71,3286835.21 718529.71,3286835.21 718520.59,3286834.97 718520.59,3286834.97 718510.85,3286834.71 718510.85,3286834.71 718499.60,3286834.39 718499.60,3286834.39 718485.83,3286834.00 718485.83,3286834.00 718472.43,3286833.61 718472.43,3286833.61 718458.40,3286833.22 718458.40,3286833.22 718447.54,3286832.95 718447.54,3286832.95 718435.87,3286832.62 718435.87,3286832.62 718426.93,3286832.37 718426.93,3286832.37 718415.92,3286832.07 718415.92,3286832.07 718404.32,3286831.75 718404.32,3286831.75 718390.28,3286831.37 718390.28,3286831.37 718376.21,3286831.00 718376.21,3286831.00 718363.60,3286830.64 718363.60,3286830.64 718349.05,3286830.23 718349.05,3286830.23 718331.62,3286829.74 718331.62,3286829.74 718315.08,3286829.29 718315.08,3286829.29 718298.79,3286828.81 718298.79,3286828.81 718285.84,3286828.46 718285.84,3286828.46 718275.38,3286828.16 718275.38,3286828.16 718268.53,3286827.97 718268.53,3286827.97 718260.55,3286827.75 718260.55,3286827.75 718250.76,3286827.48 718250.76,3286827.48 718239.68,3286827.17 718239.68,3286827.17 718230.42,3286826.97 718230.42,3286826.97 718218.68,3286826.63 718218.68,3286826.63 718206.43,3286826.30 718206.43,3286826.30 718193.02,3286825.94 718193.02,3286825.94 718175.64,3286825.48 718175.64,3286825.48 718162.25,3286825.10 718162.25,3286825.10 718147.42,3286824.69 718147.42,3286824.69 718135.51,3286824.37 718135.51,3286824.37 718124.17,3286824.07 718124.17,3286824.07 718109.80,3286823.70 718109.80,3286823.70 718097.92,3286823.37 718097.92,3286823.37 718078.78,3286822.82 718078.78,3286822.82 718068.93,3286822.58 718068.93,3286822.58 718058.58,3286822.28 718058.58,3286822.28 718047.27,3286821.99 718047.27,3286821.99 718031.67,3286821.54 718031.67,3286821.54 718014.35,3286821.06 718014.35,3286821.06 717996.81,3286820.54 717996.81,3286820.54 717976.10,3286819.94 717976.10,3286819.94 717956.70,3286819.39 717956.70,3286819.39 717938.21,3286818.85 717938.21,3286818.85 717918.91,3286818.31 717918.91,3286818.31 717904.43,3286817.91 717904.43,3286817.91 717893.90,3286817.61 717893.90,3286817.61 717882.97,3286817.31 717882.97,3286817.31 717870.94,3286816.98 717870.94,3286816.98 717857.53,3286816.64 717857.53,3286816.64 717846.37,3286816.32 717846.37,3286816.32 717835.85,3286816.03 717835.85,3286816.03 717825.30,3286815.75 717825.30,3286815.75 717814.42,3286815.44 717814.42,3286815.44 717803.93,3286815.14 717803.93,3286815.14 717790.63,3286814.80 717790.63,3286814.80 717781.02,3286814.49 717781.02,3286814.49 717767.92,3286814.18 717767.92,3286814.18 717756.89,3286813.89 717756.89,3286813.89 717745.04,3286813.56 717745.04,3286813.56 717732.45,3286813.22 717732.45,3286813.22 717719.06,3286812.85 717719.06,3286812.85 717707.65,3286812.56 717707.65,3286812.56 717697.94,3286812.30 717697.94,3286812.30 717688.39,3286812.03 717688.39,3286812.03 717678.39,3286811.75 717678.39,3286811.75 717666.61,3286811.44 717666.61,3286811.44 717655.36,3286811.14 717655.36,3286811.14 717644.06,3286810.83 717644.06,3286810.83 717632.18,3286810.48 717632.18,3286810.48 717623.44,3286810.26 717623.44,3286810.26 717614.89,3286810.01 717614.89,3286810.01 717604.71,3286809.74 717604.71,3286809.74 717596.57,3286809.52 717596.57,3286809.52 717585.44,3286809.19 717585.44,3286809.19 717575.04,3286808.89 717575.04,3286808.89 717560.83,3286808.49 717560.83,3286808.49 717550.96,3286808.25 717550.96,3286808.25 717540.18,3286807.95 717540.18,3286807.95 717527.83,3286807.58 717527.83,3286807.58 717518.14,3286807.31 717518.14,3286807.31 717509.00,3286807.05 717509.00,3286807.05 717499.00,3286806.76 717499.00,3286806.76 717488.74,3286806.47 717488.74,3286806.47 717481.05,3286806.27 717481.05,3286806.27 717471.49,3286806.00 717471.49,3286806.00 717460.89,3286805.72 717460.89,3286805.72 717449.52,3286805.39 717449.52,3286805.39 717437.99,3286805.06 717437.99,3286805.06 717429.93,3286804.85 717429.93,3286804.85 717420.74,3286804.58 717420.74,3286804.58 717410.06,3286804.29 717410.06,3286804.29 717403.67,3286804.10 717403.67,3286804.10 717395.55,3286803.86 717395.55,3286803.86 717383.52,3286803.52 717383.52,3286803.52 717370.81,3286803.16 717370.81,3286803.16 717358.47,3286802.80 717358.47,3286802.80 717346.98,3286802.44 717346.98,3286802.44 717334.82,3286802.07 717334.82,3286802.07 717320.41,3286801.70 717320.41,3286801.70 717303.22,3286801.21 717303.22,3286801.21 717287.63,3286800.81 717287.63,3286800.81 717273.88,3286800.44 717273.88,3286800.44 717257.89,3286800.00 717257.89,3286800.00 717239.90,3286799.49 717239.90,3286799.49 717220.60,3286798.99 717220.60,3286798.99 717201.96,3286798.46 717201.96,3286798.46 717189.90,3286798.14 717189.90,3286798.14 717171.13,3286797.62 717171.13,3286797.62 717153.31,3286797.10 717153.31,3286797.10 717137.80,3286796.67 717137.80,3286796.67 717122.45,3286796.21 717122.45,3286796.21 717111.49,3286795.93 717111.49,3286795.93 717099.33,3286795.59 717099.33,3286795.59 717084.52,3286795.18 717084.52,3286795.18 717067.09,3286794.67 717067.09,3286794.67 717053.87,3286794.29 717053.87,3286794.29 717041.51,3286793.94 717041.51,3286793.94 717030.85,3286793.66 717030.85,3286793.66 717017.01,3286793.29 717017.01,3286793.29 717003.22,3286792.89 717003.22,3286792.89 716987.06,3286792.45 716987.06,3286792.45 716973.94,3286792.12 716973.94,3286792.12 716958.78,3286791.73 716958.78,3286791.73 716939.94,3286791.23 716939.94,3286791.23 716921.01,3286790.72 716921.01,3286790.72 716905.74,3286790.29 716905.74,3286790.29 716892.84,3286789.95 716892.84,3286789.95 716875.78,3286789.47 716875.78,3286789.47 716860.27,3286789.05 716860.27,3286789.05 716846.18,3286788.66 716846.18,3286788.66 716832.04,3286788.27 716832.04,3286788.27 716819.88,3286787.92 716819.88,3286787.92 716805.15,3286787.54 716805.15,3286787.54 716794.32,3286787.23 716794.32,3286787.23 716785.09,3286786.97 716785.09,3286786.97 716772.36,3286786.59 716772.36,3286786.59 716758.43,3286786.22 716758.43,3286786.22 716744.90,3286785.84 716744.90,3286785.84 716730.76,3286785.42 716730.76,3286785.42 716726.75,3286785.30 716726.75,3286785.30 716719.92,3286785.11 716719.92,3286785.11 716712.80,3286784.92 716712.80,3286784.92 716702.00,3286784.61 716702.00,3286784.61 716698.76,3286784.52 716698.76,3286784.52 716691.09,3286784.29 716691.09,3286784.29 716684.92,3286784.13 716684.92,3286784.13 716673.78,3286783.83 716673.78,3286783.83 716663.96,3286783.51 716663.96,3286783.51 716649.30,3286783.12 716649.30,3286783.12 716637.68,3286782.75 716637.68,3286782.75 716627.44,3286782.50 716627.44,3286782.50 716613.96,3286782.12 716613.96,3286782.12 716600.28,3286781.72 716600.28,3286781.72 716587.12,3286781.31 716587.12,3286781.31 716572.66,3286780.93 716572.66,3286780.93 716562.42,3286780.64 716562.42,3286780.64 716549.71,3286780.29 716549.71,3286780.29 716537.47,3286779.96 716537.47,3286779.96 716524.59,3286779.61 716524.59,3286779.61 716510.93,3286779.24 716510.93,3286779.24 716499.15,3286778.92 716499.15,3286778.92 716487.49,3286778.61 716487.49,3286778.61 716477.55,3286778.35 716477.55,3286778.35 716465.30,3286778.01 716465.30,3286778.01 716451.16,3286777.65 716451.16,3286777.65 716438.40,3286777.34 716438.40,3286777.34 716428.97,3286777.10 716428.97,3286777.10 716419.98,3286776.87 716419.98,3286776.87 716412.53,3286776.66 716412.53,3286776.66 716405.15,3286776.45 716405.15,3286776.45 716393.37,3286776.14 716393.37,3286776.14 716382.13,3286775.84 716382.13,3286775.84 716366.68,3286775.41 716366.68,3286775.41 716354.50,3286775.07 716354.50,3286775.07 716343.19,3286774.77 716343.19,3286774.77 716329.54,3286774.38 716329.54,3286774.38 716320.03,3286774.12 716320.03,3286774.12 716308.41,3286773.82 716308.41,3286773.82 716296.83,3286773.47 716296.83,3286773.47 716280.88,3286773.03 716280.88,3286773.03 716267.97,3286772.66 716267.97,3286772.66 716251.86,3286772.20 716251.86,3286772.20 716238.90,3286771.86 716238.90,3286771.86 716227.34,3286771.53 716227.34,3286771.53 716215.81,3286771.23 716215.81,3286771.23 716199.93,3286770.79 716199.93,3286770.79 716184.63,3286770.37 716184.63,3286770.37 716172.67,3286770.04 716172.67,3286770.04 716160.16,3286769.68 716160.16,3286769.68 716149.07,3286769.37 716149.07,3286769.37 716135.58,3286768.98 716135.58,3286768.98 716126.47,3286768.72 716126.47,3286768.72 716117.91,3286768.49 716117.91,3286768.49 716108.17,3286768.20 716108.17,3286768.20 716098.04,3286767.93 716098.04,3286767.93 716090.19,3286767.67 716090.19,3286767.67 716080.98,3286767.41 716080.98,3286767.41 716071.61,3286767.15 716071.61,3286767.15 716065.37,3286766.97 716065.37,3286766.97 716057.62,3286766.76 716057.62,3286766.76 716048.89,3286766.50 716048.89,3286766.50 716039.97,3286766.26 716039.97,3286766.26 716032.98,3286766.06 716032.98,3286766.06 716025.42,3286765.85 716025.42,3286765.85 716019.15,3286765.68 716019.15,3286765.68 716011.61,3286765.46 716011.61,3286765.46 716004.26,3286765.27 716004.26,3286765.27 715995.98,3286765.05 715995.98,3286765.05 715987.05,3286764.81 715987.05,3286764.81 715978.09,3286764.58 715978.09,3286764.58 715968.38,3286764.32 715968.38,3286764.32 715960.67,3286764.10 715960.67,3286764.10 715953.17,3286763.90 715953.17,3286763.90 715945.98,3286763.72 715945.98,3286763.72 715936.93,3286763.48 715936.93,3286763.48 715926.68,3286763.19 715926.68,3286763.19 715916.27,3286762.87 715916.27,3286762.87 715909.35,3286762.68 715909.35,3286762.68 715903.25,3286762.50 715903.25,3286762.50 715894.38,3286762.24 715894.38,3286762.24 715884.54,3286761.92 715884.54,3286761.92 715876.10,3286761.68 715876.10,3286761.68 715867.34,3286761.43 715867.34,3286761.43 715858.60,3286761.18 715858.60,3286761.18 715851.51,3286760.94 715851.51,3286760.94 715844.61,3286760.72 715844.61,3286760.72 715836.04,3286760.45 715836.04,3286760.45 715829.05,3286760.23 715829.05,3286760.23 715818.55,3286759.86 715818.55,3286759.86 715810.24,3286759.60 715810.24,3286759.60 715802.70,3286759.33 715802.70,3286759.33 715794.39,3286759.06 715794.39,3286759.06 715785.89,3286758.73 715785.89,3286758.73 715778.14,3286758.45 715778.14,3286758.45 715770.55,3286758.17 715770.55,3286758.17 715763.69,3286757.88 715763.69,3286757.88 715754.42,3286757.50 715754.42,3286757.50 715745.48,3286757.20 715745.48,3286757.20 715734.44,3286756.76 715734.44,3286756.76 715720.12,3286756.21 715720.12,3286756.21 715711.16,3286755.88 715711.16,3286755.88 715700.40,3286755.46 715700.40,3286755.46 715689.71,3286755.03 715689.71,3286755.03 715680.82,3286754.68 715680.82,3286754.68 715673.27,3286754.37 715673.27,3286754.37 715664.58,3286754.01 715664.58,3286754.01 715654.99,3286753.51 715654.99,3286753.51 715646.31,3286753.02 715646.31,3286753.02 715636.18,3286752.47 715636.18,3286752.47 715626.31,3286751.89 715626.31,3286751.89 715615.90,3286751.29 715615.90,3286751.29 715603.36,3286750.52 715603.36,3286750.52 715593.17,3286749.83 715593.17,3286749.83 715586.48,3286749.40 715586.48,3286749.40 715577.00,3286748.75 715577.00,3286748.75 715575.10,3286748.61">
        <lane index="0" width="3.66" type="shoulder" disallow="all" />
        <lane index="1" width="3.66" />
        <lane index="2" width="3.66" />
    </edge>