<?xml version='1.0' encoding='utf-8'?>
<edges>
    <edge id="400.0" from="node_400_start" to="junction_95" numLanes="3" speed="13.89" type="town" shape="644257.69,3281012.02 644229.96,3281013.68 644229.96,3281013.68 644194.21,3281015.72 644194.21,3281015.72 644167.95,3281017.22 644167.95,3281017.22 644140.54,3281018.73 644140.54,3281018.73 644116.57,3281020.09 644116.57,3281020.09 644094.43,3281021.35 644094.43,3281021.35 644070.52,3281022.73 644070.52,3281022.73 644048.42,3281023.98 644048.42,3281023.98 644023.30,3281025.37 644023.30,3281025.37 643996.80,3281026.87 643996.80,3281026.87 643973.33,3281028.27 643973.33,3281028.27 643946.65,3281029.78 643946.65,3281029.78 643921.99,3281031.15 643921.99,3281031.15 643893.98,3281032.73 643893.98,3281032.73 643864.57,3281034.43 643864.57,3281034.43 643834.24,3281036.13 643834.24,3281036.13 643806.17,3281037.70 643806.17,3281037.70 643775.90,3281039.45 643775.90,3281039.45 643746.67,3281041.12 643746.67,3281041.12 643718.19,3281042.72 643718.19,3281042.72 643688.41,3281044.32 643688.41,3281044.32 643651.16,3281046.42 643651.16,3281046.42 643624.30,3281047.95 643624.30,3281047.95 643593.84,3281049.73 643593.84,3281049.73 643572.25,3281050.92 643572.25,3281050.92 643548.24,3281052.33 643548.24,3281052.33 643525.38,3281053.59 643525.38,3281053.59 643499.63,3281055.08 643499.63,3281055.08 643481.35,3281056.15 643481.35,3281056.15 643455.96,3281057.51 643455.96,3281057.51 643429.90,3281059.00 643429.90,3281059.00 643403.04,3281060.53 643403.04,3281060.53 643378.49,3281061.87 643378.49,3281061.87 643351.72,3281063.43 643351.72,3281063.43 643329.09,3281064.64 643329.09,3281064.64 643301.09,3281066.18 643301.09,3281066.18 643279.84,3281067.41 643279.84,3281067.41 643250.04,3281069.11 643250.04,3281069.11 643227.35,3281070.32 643227.35,3281070.32 643203.22,3281071.64 643203.22,3281071.64 643164.95,3281073.83 643164.95,3281073.83 643143.80,3281075.06 643143.80,3281075.06 643110.57,3281076.92 643110.57,3281076.92 643082.61,3281078.49 643082.61,3281078.49 643055.50,3281080.06 643055.50,3281080.06 643022.42,3281081.97 643022.42,3281081.97 642989.04,3281083.86 642989.04,3281083.86 642958.01,3281085.56 642958.01,3281085.56 642931.13,3281087.04 642931.13,3281087.04 642909.27,3281088.32 642909.27,3281088.32 642882.05,3281089.92 642882.05,3281089.92 642854.06,3281091.42 642854.06,3281091.42 642830.47,3281092.73 642830.47,3281092.73 642800.24,3281094.51 642800.24,3281094.51 642771.34,3281096.20 642771.34,3281096.20 642747.88,3281097.56 642747.88,3281097.56 642729.86,3281098.55 642729.86,3281098.55 642709.84,3281099.75 642709.84,3281099.75 642673.97,3281101.82 642673.97,3281101.82 642638.85,3281103.73 642638.85,3281103.73 642600.34,3281105.91 642600.34,3281105.91 642579.21,3281107.11 642579.21,3281107.11 642556.21,3281108.41 642556.21,3281108.41 642535.05,3281109.56 642535.05,3281109.56 642508.77,3281111.02 642508.77,3281111.02 642485.60,3281112.32 642485.60,3281112.32 642464.41,3281113.54 642464.41,3281113.54 642437.18,3281115.11 642437.18,3281115.11 642367.43,3281119.08 642367.43,3281119.08 642308.81,3281122.48 642308.81,3281122.48 642280.17,3281124.13 642280.17,3281124.13 642254.00,3281125.62 642254.00,3281125.62 642226.30,3281127.16 642226.30,3281127.16 642195.10,3281128.90 642195.10,3281128.90 642169.48,3281130.34 642169.48,3281130.34 642128.23,3281132.53 642128.23,3281132.53 642080.62,3281135.25 642080.62,3281135.25 642048.05,3281137.05 642048.05,3281137.05 642030.44,3281138.13 642030.44,3281138.13 642005.38,3281139.58 642005.38,3281139.58 641977.14,3281141.18 641977.14,3281141.18 641960.80,3281142.09 641960.80,3281142.09 641942.58,3281143.18 641942.58,3281143.18 641916.96,3281144.58 641916.96,3281144.58 641897.57,3281145.68 641897.57,3281145.68 641882.67,3281146.45 641882.67,3281146.45 641861.73,3281147.66 641861.73,3281147.66 641834.80,3281149.14 641834.80,3281149.14 641809.41,3281150.54 641809.41,3281150.54 641788.45,3281151.79 641788.45,3281151.79 641763.75,3281153.23 641763.75,3281153.23 641736.86,3281154.78 641736.86,3281154.78 641709.71,3281156.37 641709.71,3281156.37 641681.75,3281157.92 641681.75,3281157.92 641655.90,3281159.39 641655.90,3281159.39 641635.94,3281160.46 641635.94,3281160.46 641616.96,3281161.55 641616.96,3281161.55 641595.05,3281162.84 641595.05,3281162.84 641571.71,3281164.13 641571.71,3281164.13 641549.56,3281165.40 641549.56,3281165.40 641530.95,3281166.44 641530.95,3281166.44 641509.51,3281167.63 641509.51,3281167.63 641488.66,3281168.87 641488.66,3281168.87 641458.82,3281170.51 641458.82,3281170.51 641431.46,3281172.01 641431.46,3281172.01 641403.83,3281173.64 641403.83,3281173.64 641379.17,3281175.09 641379.17,3281175.09 641350.95,3281176.76 641350.95,3281176.76 641319.73,3281178.45 641319.73,3281178.45 641279.35,3281180.68 641279.35,3281180.68 641224.09,3281183.82 641224.09,3281183.82 641183.77,3281186.10 641183.77,3281186.10 641159.05,3281187.48 641159.05,3281187.48 641116.08,3281190.00 641116.08,3281190.00 641089.05,3281191.58 641089.05,3281191.58 641058.09,3281193.29 641058.09,3281193.29 641028.52,3281194.90 641028.52,3281194.90 641000.88,3281196.49 641000.88,3281196.49 640971.00,3281198.17 640971.00,3281198.17 640947.58,3281199.54 640947.58,3281199.54 640919.29,3281201.16 640919.29,3281201.16 640899.63,3281202.23 640899.63,3281202.23 640881.04,3281203.30 640881.04,3281203.30 640855.15,3281204.68 640855.15,3281204.68 640835.91,3281205.83 640835.91,3281205.83 640817.85,3281206.86 640817.85,3281206.86 640795.99,3281208.09 640795.99,3281208.09 640776.72,3281209.17 640776.72,3281209.17 640755.90,3281210.36 640755.90,3281210.36 640740.63,3281211.22 640740.63,3281211.22 640718.02,3281212.56 640718.02,3281212.56 640691.10,3281214.09 640691.10,3281214.09 640666.83,3281215.50 640666.83,3281215.50 640639.09,3281217.09 640639.09,3281217.09 640606.28,3281218.95 640606.28,3281218.95 640573.54,3281220.87 640573.54,3281220.87 640542.22,3281222.70 640542.22,3281222.70 640513.03,3281224.31 640513.03,3281224.31 640484.63,3281225.91 640484.63,3281225.91 640448.15,3281227.87 640448.15,3281227.87 640418.13,3281229.53 640418.13,3281229.53 640388.40,3281231.22 640388.40,3281231.22 640355.70,3281233.08 640355.70,3281233.08 640320.65,3281235.06 640320.65,3281235.06 640300.48,3281236.22 640300.48,3281236.22 640275.10,3281237.69 640275.10,3281237.69 640248.26,3281239.23 640248.26,3281239.23 640224.96,3281240.57 640224.96,3281240.57 640202.99,3281241.87 640202.99,3281241.87 640182.67,3281243.07 640182.67,3281243.07 640163.36,3281244.21 640163.36,3281244.21 640143.33,3281245.38 640143.33,3281245.38 640115.02,3281246.98 640115.02,3281246.98 640092.18,3281248.25 640092.18,3281248.25 640064.12,3281249.82 640064.12,3281249.82 640035.28,3281251.34 640035.28,3281251.34 640017.07,3281252.34 640017.07,3281252.34 639996.28,3281253.54 639996.28,3281253.54 639970.94,3281254.98 639970.94,3281254.98 639951.88,3281256.07 639951.88,3281256.07 639925.70,3281257.55 639925.70,3281257.55 639902.87,3281258.88 639902.87,3281258.88 639885.80,3281259.81 639885.80,3281259.81 639867.35,3281260.85 639867.35,3281260.85 639845.39,3281262.16 639845.39,3281262.16 639825.39,3281263.31 639825.39,3281263.31 639803.70,3281264.56 639803.70,3281264.56 639784.85,3281265.60 639784.85,3281265.60 639768.53,3281266.54 639768.53,3281266.54 639748.31,3281267.70 639748.31,3281267.70 639724.43,3281269.04 639724.43,3281269.04 639723.39,3281269.10 639723.39,3281269.10 639699.70,3281270.41 639699.70,3281270.41 639679.40,3281271.57 639679.40,3281271.57 639657.68,3281272.78 639657.68,3281272.78 639641.46,3281273.72 639641.46,3281273.72 639633.24,3281274.16 639633.24,3281274.16 639619.72,3281274.92 639619.72,3281274.92 639607.06,3281275.65 639607.06,3281275.65 639595.42,3281276.31 639595.42,3281276.31 639580.50,3281277.16 639580.50,3281277.16 639567.57,3281277.89 639567.57,3281277.89 639554.27,3281278.68 639554.27,3281278.68 639535.34,3281279.79 639535.34,3281279.79 639521.43,3281280.61 639521.43,3281280.61 639509.34,3281281.32 639509.34,3281281.32 639498.37,3281281.95 639498.37,3281281.95 639491.73,3281282.32 639491.73,3281282.32 639485.22,3281282.73 639485.22,3281282.73 639475.70,3281283.26 639475.70,3281283.26 639467.64,3281283.72 639467.64,3281283.72 639458.89,3281284.25 639458.89,3281284.25 639450.02,3281284.73 639450.02,3281284.73 639441.26,3281285.21 639441.26,3281285.21 639434.08,3281285.59 639434.08,3281285.59 639424.73,3281286.08 639424.73,3281286.08 639416.74,3281286.51 639416.74,3281286.51 639406.60,3281287.03 639406.60,3281287.03 639397.93,3281287.49 639397.93,3281287.49 639391.09,3281287.80 639391.09,3281287.80 639379.99,3281288.35 639379.99,3281288.35 639372.23,3281288.74 639372.23,3281288.74 639363.13,3281289.19 639363.13,3281289.19 639353.25,3281289.67 639353.25,3281289.67 639347.10,3281289.98 639347.10,3281289.98 639338.03,3281290.43 639338.03,3281290.43 639324.09,3281291.14 639324.09,3281291.14 639310.83,3281291.79 639310.83,3281291.79 639299.42,3281292.35 639299.42,3281292.35 639294.21,3281292.61 639294.21,3281292.61 639282.90,3281293.07 639282.90,3281293.07 639274.73,3281293.48 639274.73,3281293.48 639261.14,3281294.00 639261.14,3281294.00 639253.70,3281294.27 639253.70,3281294.27 639241.40,3281294.73 639241.40,3281294.73 639226.23,3281295.24 639226.23,3281295.24 639221.34,3281295.40 639221.34,3281295.40 639214.79,3281295.59 639214.79,3281295.59 639202.21,3281296.00 639202.21,3281296.00 639186.53,3281296.48 639186.53,3281296.48 639173.23,3281296.86 639173.23,3281296.86 639158.81,3281297.28 639158.81,3281297.28 639147.30,3281297.61 639147.30,3281297.61 639134.53,3281297.97 639134.53,3281297.97 639126.98,3281298.18 639126.98,3281298.18 639120.73,3281298.39 639120.73,3281298.39 639112.62,3281298.62 639112.62,3281298.62 639102.63,3281298.94 639102.63,3281298.94 639092.57,3281299.25 639092.57,3281299.25 639084.70,3281299.52 639084.70,3281299.52 639078.84,3281299.69 639078.84,3281299.69 639070.62,3281299.97 639070.62,3281299.97 639061.39,3281300.22 639061.39,3281300.22 639052.11,3281300.52 639052.11,3281300.52 639041.30,3281300.84 639041.30,3281300.84 639030.36,3281301.16 639030.36,3281301.16 639019.92,3281301.43 639019.92,3281301.43 639011.44,3281301.65 639011.44,3281301.65 638997.85,3281301.95 638997.85,3281301.95 638982.48,3281302.29 638982.48,3281302.29 638969.41,3281302.57 638969.41,3281302.57 638954.77,3281302.85 638954.77,3281302.85 638937.86,3281303.16 638937.86,3281303.16 638920.03,3281303.50 638920.03,3281303.50 638907.46,3281303.74 638907.46,3281303.74 638895.02,3281304.03 638895.02,3281304.03 638881.48,3281304.32 638881.48,3281304.32 638858.45,3281304.90 638858.45,3281304.90 638835.02,3281305.45 638835.02,3281305.45 638818.87,3281305.82 638818.87,3281305.82 638803.72,3281306.10 638803.72,3281306.10 638782.38,3281306.59 638782.38,3281306.59 638771.89,3281306.82 638771.89,3281306.82 638756.17,3281307.16 638756.17,3281307.16 638743.93,3281307.45 638743.93,3281307.45 638730.20,3281307.77 638730.20,3281307.77 638718.26,3281308.02 638718.26,3281308.02 638693.19,3281308.59 638693.19,3281308.59 638670.84,3281309.06 638670.84,3281309.06 638655.67,3281309.38 638655.67,3281309.38 638633.06,3281309.85 638633.06,3281309.85 638626.50,3281309.99 638626.50,3281309.99 638617.59,3281310.16 638617.59,3281310.16 638605.90,3281310.45 638605.90,3281310.45 638592.77,3281310.74 638592.77,3281310.74 638580.46,3281311.04 638580.46,3281311.04 638567.50,3281311.34 638567.50,3281311.34 638554.28,3281311.64 638554.28,3281311.64 638542.16,3281311.93 638542.16,3281311.93 638529.63,3281312.22 638529.63,3281312.22 638518.81,3281312.46 638518.81,3281312.46 638507.06,3281312.73 638507.06,3281312.73 638496.71,3281312.97 638496.71,3281312.97 638487.73,3281313.16 638487.73,3281313.16 638476.29,3281313.41 638476.29,3281313.41 638460.35,3281313.72 638460.35,3281313.72 638448.30,3281313.99 638448.30,3281313.99 638434.68,3281314.27 638434.68,3281314.27 638418.08,3281314.68 638418.08,3281314.68 638406.65,3281314.93 638406.65,3281314.93 638395.77,3281315.17 638395.77,3281315.17 638383.53,3281315.43 638383.53,3281315.43 638373.43,3281315.64 638373.43,3281315.64 638361.19,3281315.92 638361.19,3281315.92 638346.82,3281316.25 638346.82,3281316.25 638331.25,3281316.59 638331.25,3281316.59 638319.72,3281316.86 638319.72,3281316.86 638310.40,3281317.09 638310.40,3281317.09 638303.94,3281317.25 638303.94,3281317.25 638295.54,3281317.45 638295.54,3281317.45 638283.61,3281317.71 638283.61,3281317.71 638271.82,3281317.98 638271.82,3281317.98 638264.73,3281318.13 638264.73,3281318.13 638252.95,3281318.36 638252.95,3281318.36 638242.67,3281318.56 638242.67,3281318.56 638232.75,3281318.77 638232.75,3281318.77 638221.40,3281319.02 638221.40,3281319.02 638202.31,3281319.43 638202.31,3281319.43 638190.25,3281319.70 638190.25,3281319.70 638171.97,3281320.09 638171.97,3281320.09 638156.14,3281320.46 638156.14,3281320.46 638145.64,3281320.71 638145.64,3281320.71 638127.17,3281321.11 638127.17,3281321.11 638113.70,3281321.44 638113.70,3281321.44 638105.30,3281321.61 638105.30,3281321.61 638089.52,3281321.98 638089.52,3281321.98 638068.97,3281322.45 638068.97,3281322.45 638049.62,3281322.88 638049.62,3281322.88 638033.15,3281323.31 638033.15,3281323.31 638020.97,3281323.62 638020.97,3281323.62 638007.72,3281323.94 638007.72,3281323.94 637994.72,3281324.23 637994.72,3281324.23 637976.43,3281324.62 637976.43,3281324.62 637960.05,3281324.99 637960.05,3281324.99 637944.91,3281325.32 637944.91,3281325.32 637926.76,3281325.74 637926.76,3281325.74 637913.40,3281326.07 637913.40,3281326.07 637889.41,3281326.58 637889.41,3281326.58 637871.59,3281326.99 637871.59,3281326.99 637851.88,3281327.45 637851.88,3281327.45 637839.32,3281327.73 637839.32,3281327.73 637821.32,3281328.12 637821.32,3281328.12 637812.83,3281328.32 637812.83,3281328.32 637802.96,3281328.51 637802.96,3281328.51 637794.43,3281328.70 637794.43,3281328.70 637781.68,3281328.98 637781.68,3281328.98 637769.16,3281329.24 637769.16,3281329.24 637756.85,3281329.52 637756.85,3281329.52 637743.85,3281329.81 637743.85,3281329.81 637726.16,3281330.19 637726.16,3281330.19 637715.67,3281330.40 637715.67,3281330.40 637705.65,3281330.60 637705.65,3281330.60 637693.55,3281330.84 637693.55,3281330.84 637678.81,3281331.15 637678.81,3281331.15 637662.09,3281331.50 637662.09,3281331.50 637644.14,3281331.83 637644.14,3281331.83 637630.32,3281332.11 637630.32,3281332.11 637618.81,3281332.30 637618.81,3281332.30 637602.76,3281332.55 637602.76,3281332.55 637590.42,3281332.79 637590.42,3281332.79 637574.83,3281333.03 637574.83,3281333.03 637563.08,3281333.25 637563.08,3281333.25 637550.30,3281333.43 637550.30,3281333.43 637542.58,3281333.55 637542.58,3281333.55 637531.85,3281333.70 637531.85,3281333.70 637522.94,3281333.83 637522.94,3281333.83 637517.42,3281333.91 637517.42,3281333.91 637511.19,3281333.97 637511.19,3281333.97 637504.88,3281334.05 637504.88,3281334.05 637490.95,3281334.25 637490.95,3281334.25 637480.71,3281334.30 637480.71,3281334.30 637470.14,3281334.28 637470.14,3281334.28 637460.81,3281334.16 637460.81,3281334.16 637448.79,3281333.89 637448.79,3281333.89 637435.60,3281333.53 637435.60,3281333.53 637421.42,3281332.94 637421.42,3281332.94 637411.49,3281332.47 637411.49,3281332.47 637404.84,3281332.12 637404.84,3281332.12 637400.97,3281331.92 637400.97,3281331.92 637398.03,3281331.73 637398.03,3281331.73 637390.67,3281331.29 637390.67,3281331.29 637385.31,3281330.96 637385.31,3281330.96 637374.85,3281330.24 637374.85,3281330.24 637366.64,3281329.65 637366.64,3281329.65 637353.78,3281328.65 637353.78,3281328.65 637343.92,3281327.84 637343.92,3281327.84 637335.40,3281327.07 637335.40,3281327.07 637325.75,3281326.15 637325.75,3281326.15 637315.96,3281325.17 637315.96,3281325.17 637305.21,3281324.02 637305.21,3281324.02 637296.78,3281323.06 637296.78,3281323.06 637279.39,3281320.94 637279.39,3281320.94 637261.75,3281318.51 637261.75,3281318.51 637247.48,3281316.49 637247.48,3281316.49 637234.21,3281314.47 637234.21,3281314.47 637221.59,3281312.48 637221.59,3281312.48 637212.37,3281310.91 637212.37,3281310.91 637198.83,3281308.58 637198.83,3281308.58 637184.70,3281305.95 637184.70,3281305.95 637165.53,3281302.31 637165.53,3281302.31 637158.94,3281301.05 637158.94,3281301.05 637145.26,3281298.48 637145.26,3281298.48 637133.66,3281296.27 637133.66,3281296.27 637122.26,3281294.15 637122.26,3281294.15 637113.07,3281292.41 637113.07,3281292.41 637101.24,3281290.18 637101.24,3281290.18 637091.68,3281288.33 637091.68,3281288.33 637083.83,3281286.85 637083.83,3281286.85 637071.39,3281284.45 637071.39,3281284.45 637063.06,3281282.79 637063.06,3281282.79 637049.12,3281280.02 637049.12,3281280.02 637039.25,3281278.05 637039.25,3281278.05 637022.70,3281274.70 637022.70,3281274.70 637008.63,3281271.86 637008.63,3281271.86 636997.92,3281269.64 636997.92,3281269.64 636982.95,3281266.62 636982.95,3281266.62 636971.53,3281264.33 636971.53,3281264.33 636960.73,3281262.16 636960.73,3281262.16 636952.74,3281260.55 636952.74,3281260.55 636945.10,3281259.03 636945.10,3281259.03 636936.87,3281257.36 636936.87,3281257.36 636925.74,3281255.11 636925.74,3281255.11 636916.77,3281253.32 636916.77,3281253.32 636910.25,3281252.01 636910.25,3281252.01 636899.67,3281249.89 636899.67,3281249.89 636894.86,3281248.93 636894.86,3281248.93 636886.85,3281247.33 636886.85,3281247.33 636882.20,3281246.38 636882.20,3281246.38 636872.46,3281244.44 636872.46,3281244.44 636861.68,3281242.29 636861.68,3281242.29 636851.26,3281240.22 636851.26,3281240.22 636842.18,3281238.38 636842.18,3281238.38 636832.10,3281236.40 636832.10,3281236.40 636819.70,3281233.90 636819.70,3281233.90 636807.10,3281231.40 636807.10,3281231.40 636795.55,3281229.13 636795.55,3281229.13 636782.65,3281226.59 636782.65,3281226.59 636766.02,3281223.30 636766.02,3281223.30 636757.79,3281221.69 636757.79,3281221.69 636748.59,3281219.86 636748.59,3281219.86 636732.46,3281216.68 636732.46,3281216.68 636725.60,3281215.33">
        <lane index="0" width="3.66" type="shoulder" disallow="all" />
        <lane index="1" width="3.66" />
        <lane index="2" width="3.66" />
    </edge>
    <edge id="410.0" from="node_410_start" to="node_410_end" numLanes="3" speed="13.89" type="town" shape="636658.50,3281201.98 636655.87,3281201.45 636655.87,3281201.45 636644.77,3281199.25 636644.77,3281199.25 636634.00,3281197.06 636634.00,3281197.06 636621.26,3281194.51 636621.26,3281194.51 636607.24,3281191.74 636607.24,3281191.74 636593.17,3281188.92 636593.17,3281188.92 636580.55,3281186.38 636580.55,3281186.38 636568.72,3281183.99 636568.72,3281183.99 636561.41,3281182.51 636561.41,3281182.51 636547.74,3281179.77 636547.74,3281179.77 636537.30,3281177.65 636537.30,3281177.65 636529.94,3281176.20 636529.94,3281176.20 636520.00,3281174.21 636520.00,3281174.21 636511.80,3281172.62 636511.80,3281172.62 636504.94,3281171.22 636504.94,3281171.22 636491.05,3281168.53 636491.05,3281168.53 636480.34,3281166.41 636480.34,3281166.41 636471.39,3281164.64 636471.39,3281164.64 636461.27,3281162.63 636461.27,3281162.63 636449.28,3281160.24 636449.28,3281160.24 636437.89,3281158.05 636437.89,3281158.05 636429.63,3281156.39 636429.63,3281156.39 636416.93,3281153.83 636416.93,3281153.83 636407.36,3281151.94 636407.36,3281151.94 636390.91,3281148.63 636390.91,3281148.63 636364.54,3281143.33 636364.54,3281143.33 636348.61,3281140.07 636348.61,3281140.07 636339.64,3281138.28 636339.64,3281138.28 636329.01,3281136.14 636329.01,3281136.14 636319.77,3281134.32 636319.77,3281134.32 636309.72,3281132.30 636309.72,3281132.30 636301.14,3281130.59 636301.14,3281130.59 636291.94,3281128.76 636291.94,3281128.76 636279.04,3281126.21 636279.04,3281126.21 636268.46,3281124.12 636268.46,3281124.12 636265.23,3281123.45 636265.23,3281123.45 636255.84,3281121.60 636255.84,3281121.60 636241.25,3281118.67 636241.25,3281118.67 636228.59,3281116.17 636228.59,3281116.17 636217.20,3281113.87 636217.20,3281113.87 636208.57,3281112.13 636208.57,3281112.13 636194.59,3281109.36 636194.59,3281109.36 636180.48,3281106.54 636180.48,3281106.54 636163.85,3281103.25 636163.85,3281103.25 636147.77,3281100.01 636147.77,3281100.01 636140.05,3281098.49 636140.05,3281098.49 636128.30,3281096.14 636128.30,3281096.14 636114.56,3281093.43 636114.56,3281093.43 636106.30,3281091.78 636106.30,3281091.78 636091.69,3281088.85 636091.69,3281088.85 636081.03,3281086.73 636081.03,3281086.73 636073.07,3281085.12 636073.07,3281085.12 636065.97,3281083.73 636065.97,3281083.73 636057.20,3281081.97 636057.20,3281081.97 636040.27,3281078.57 636040.27,3281078.57 636032.94,3281077.11 636032.94,3281077.11 636020.91,3281074.70 636020.91,3281074.70 636009.75,3281072.47 636009.75,3281072.47 635997.80,3281070.07 635997.80,3281070.07 635984.00,3281067.31 635984.00,3281067.31 635971.94,3281064.85 635971.94,3281064.85 635952.93,3281061.07 635952.93,3281061.07 635939.43,3281058.38 635939.43,3281058.38 635926.74,3281055.88 635926.74,3281055.88 635916.23,3281053.75 635916.23,3281053.75 635905.29,3281051.56 635905.29,3281051.56 635898.14,3281050.13 635898.14,3281050.13 635888.79,3281048.30 635888.79,3281048.30 635877.59,3281046.06 635877.59,3281046.06 635865.82,3281043.73 635865.82,3281043.73 635856.65,3281041.91 635856.65,3281041.91 635840.08,3281038.62 635840.08,3281038.62 635828.42,3281036.30 635828.42,3281036.30 635808.41,3281032.30 635808.41,3281032.30 635794.91,3281029.60 635794.91,3281029.60 635776.05,3281025.81 635776.05,3281025.81 635764.55,3281023.52 635764.55,3281023.52 635753.09,3281021.21 635753.09,3281021.21 635741.35,3281018.89 635741.35,3281018.89 635735.35,3281017.72 635735.35,3281017.72 635726.33,3281015.92 635726.33,3281015.92 635716.29,3281013.85 635716.29,3281013.85 635704.76,3281011.60 635704.76,3281011.60 635688.98,3281008.44 635688.98,3281008.44 635676.74,3281006.04 635676.74,3281006.04 635662.78,3281003.26 635662.78,3281003.26 635650.09,3281000.75 635650.09,3281000.75 635639.98,3280998.72">
        <lane index="0" width="3.66" type="shoulder" disallow="all" />
        <lane index="1" width="3.66" />
        <lane index="2" width="3.66" />
    </edge>
    <edge id="412.0" from="node_412_start" to="node_412_end" numLanes="1" speed="13.89" type="town" shape="635964.08,3281119.17 635948.10,3281114.37 635948.10,3281114.37 635930.04,3281108.04 635930.04,3281108.04 635907.54,3281099.73 635907.54,3281099.73 635878.96,3281088.78 635878.96,3281088.78 635852.80,3281078.74 635852.80,3281078.74 635839.01,3281073.55 635839.01,3281073.55 635823.78,3281068.26 635823.78,3281068.26 635803.85,3281061.16 635803.85,3281061.16 635778.55,3281051.89 635778.55,3281051.89 635754.54,3281042.88 635754.54,3281042.88 635728.59,3281033.54 635728.59,3281033.54 635712.78,3281028.34 635712.78,3281028.34 635700.30,3281024.57 635700.30,3281024.57 635683.77,3281020.01 635683.77,3281020.01 635668.66,3281016.26 635668.66,3281016.26 635651.12,3281011.88 635651.12,3281011.88 635638.03,3281008.62">
        <lane index="0" width="3.66" />
    </edge>
    <edge id="414.0" from="junction_95" to="node_410_start" numLanes="2" speed="13.89" type="town" shape="636676.63,3281205.62 636675.09,3281205.31 636675.09,3281205.31 636658.50,3281201.98">
        <lane index="0" width="3.66" />
        <lane index="1" width="3.66" />
    </edge>
    <edge id="416.0" from="node_416_start" to="node_416_end" numLanes="1" speed="13.89" type="town" shape="636656.41,3281211.49 636654.51,3281211.40 636654.51,3281211.40 636642.57,3281210.69 636642.57,3281210.69 636629.02,3281210.01 636629.02,3281210.01 636615.14,3281209.41 636615.14,3281209.41 636606.48,3281209.04 636606.48,3281209.04 636600.45,3281208.82 636600.45,3281208.82 636590.59,3281208.51 636590.59,3281208.51 636580.91,3281208.02 636580.91,3281208.02 636567.71,3281207.35 636567.71,3281207.35 636557.61,3281206.83 636557.61,3281206.83 636548.70,3281206.37 636548.70,3281206.37 636537.48,3281205.81 636537.48,3281205.81 636526.91,3281205.28 636526.91,3281205.28 636516.54,3281204.77 636516.54,3281204.77 636502.14,3281204.05 636502.14,3281204.05 636486.92,3281203.40 636486.92,3281203.40 636470.18,3281202.54 636470.18,3281202.54 636455.12,3281201.76 636455.12,3281201.76 636435.80,3281200.57 636435.80,3281200.57 636383.71,3281197.28">
        <lane index="0" width="3.66" />
    </edge>
    <edge id="417.0" from="junction_95" to="node_416_start" numLanes="1" speed="13.89" type="town" shape="636675.03,3281212.58 636666.01,3281211.98 636666.01,3281211.98 636656.41,3281211.49">
        <lane index="0" width="3.66" />
    </edge>
    <edge id="413.0" from="node_410_end" to="junction_32" numLanes="2" speed="13.89" type="town" shape="635639.98,3280998.72 635638.30,3280998.38 635638.30,3280998.38 635631.24,3280996.98 635631.24,3280996.98 635624.69,3280995.71 635624.69,3280995.71 635617.78,3280994.33 635617.78,3280994.33 635608.61,3280992.52 635608.61,3280992.52 635599.84,3280990.75">
        <lane index="0" width="3.66" />
        <lane index="1" width="3.66" />
    </edge>
    <edge id="415.0" from="node_412_end" to="junction_32" numLanes="1" speed="13.89" type="town" shape="635638.03,3281008.62 635627.69,3281005.90 635627.69,3281005.90 635613.60,3281002.01 635613.60,3281002.01 635600.77,3280998.50 635600.77,3280998.50 635599.52,3280998.18 635599.52,3280998.18 635598.68,3280997.75">
        <lane index="0" width="3.66" />
    </edge>
</edges>