<?xml version="1.0" encoding="UTF-8"?>

<!-- generated on 2025-10-19 17:33:41 by Eclipse SUMO netconvert Version 1.23.1
<netconvertConfiguration xmlns:xsi="http://www.w3.org/2001/XMLSchema-instance" xsi:noNamespaceSchemaLocation="http://sumo.dlr.de/xsd/netconvertConfiguration.xsd">

    <input>
        <node-files value="/home/sdai/harry/TeraSim/jupiter/wb/jupiter_wb_tiles/tile_0056/tile_0056.nod.xml"/>
        <edge-files value="/home/sdai/harry/TeraSim/jupiter/wb/jupiter_wb_tiles/tile_0056/tile_0056.edg.xml"/>
        <connection-files value="/home/sdai/harry/TeraSim/jupiter/wb/jupiter_wb_tiles/tile_0056/tile_0056.con.xml"/>
    </input>

    <output>
        <output-file value="/home/sdai/harry/TeraSim/jupiter/wb/jupiter_wb_tiles/tile_0056/tile_0056.net.xml"/>
        <output.street-names value="true"/>
        <output.original-names value="true"/>
    </output>

    <processing>
        <geometry.remove value="false"/>
        <geometry.min-dist value="0.5"/>
        <edges.join value="false"/>
    </processing>

    <junctions>
        <no-internal-links value="false"/>
        <no-turnarounds value="true"/>
        <junctions.join value="true"/>
        <junctions.join-dist value="10"/>
        <junctions.corner-detail value="5"/>
        <junctions.internal-link-detail value="5"/>
        <junctions.limit-turn-speed value="5.5"/>
        <rectangular-lane-cut value="true"/>
        <check-lane-foes.all value="true"/>
    </junctions>

</netconvertConfiguration>
-->

<net version="1.20" junctionCornerDetail="5" junctionLinkDetail="5" rectangularLaneCut="true" limitTurnSpeed="5.50" checkLaneFoesAll="1" xmlns:xsi="http://www.w3.org/2001/XMLSchema-instance" xsi:noNamespaceSchemaLocation="http://sumo.dlr.de/xsd/net_file.xsd">

    <location netOffset="-635598.68,-3280990.75" convBoundary="0.00,0.00,8659.01,343.55" origBoundary="0.00,0.00,644257.69,3281334.30" projParameter="!"/>

    <edge id=":junction_95_0" function="internal">
        <lane id=":junction_95_0_0" index="0" speed="13.89" length="55.41" width="3.66" shape="1125.86,229.97 1111.76,227.75 1094.71,225.67 1079.49,224.07 1070.87,223.30"/>
    </edge>
    <edge id=":junction_95_1" function="internal">
        <lane id=":junction_95_1_0" index="0" speed="13.89" length="55.49" width="3.66" shape="1125.86,229.97 1071.42,219.16"/>
        <lane id=":junction_95_1_1" index="1" speed="13.89" length="55.49" width="3.66" shape="1126.57,226.38 1072.14,215.57"/>
    </edge>
    <edge id=":node_410_end_0" function="internal">
        <lane id=":node_410_end_0_0" index="0" speed="13.89" length="3.00" width="3.66" shape="41.69,13.65 38.74,13.05"/>
        <lane id=":node_410_end_0_1" index="1" speed="13.89" length="3.00" width="3.66" shape="42.41,10.06 39.47,9.47"/>
    </edge>
    <edge id=":node_410_start_0" function="internal">
        <lane id=":node_410_start_0_0" index="0" speed="13.89" length="3.00" width="3.66" shape="1060.21,216.91 1057.27,216.32"/>
        <lane id=":node_410_start_0_1" index="1" speed="13.89" length="3.00" width="3.66" shape="1060.93,213.32 1057.99,212.73"/>
    </edge>
    <edge id=":node_412_end_0" function="internal">
        <lane id=":node_412_end_0_0" index="0" speed="13.89" length="0.29" width="3.66" shape="39.04,19.68 38.76,19.61"/>
    </edge>
    <edge id=":node_416_start_0" function="internal">
        <lane id=":node_416_start_0_0" index="0" speed="13.89" length="0.30" width="3.66" shape="1057.79,222.58 1057.49,222.56"/>
    </edge>

    <edge id="400.0" from="node_400_start" to="junction_95" priority="-1" type="town" shape="8659.01,21.27 8631.28,22.93 8595.53,24.97 8569.27,26.47 8541.86,27.98 8517.89,29.34 8495.75,30.60 8471.84,31.98 8449.74,33.23 8424.62,34.62 8398.12,36.12 8374.65,37.52 8347.97,39.03 8323.31,40.40 8295.30,41.98 8265.89,43.68 8235.56,45.38 8207.49,46.95 8177.22,48.70 8147.99,50.37 8119.51,51.97 8089.73,53.57 8052.48,55.67 8025.62,57.20 7995.16,58.98 7973.57,60.17 7949.56,61.58 7926.70,62.84 7900.95,64.33 7882.67,65.40 7857.28,66.76 7831.22,68.25 7804.36,69.78 7779.81,71.12 7753.04,72.68 7730.41,73.89 7702.41,75.43 7681.16,76.66 7651.36,78.36 7628.67,79.57 7604.54,80.89 7566.27,83.08 7545.12,84.31 7511.89,86.17 7483.93,87.74 7456.82,89.31 7423.74,91.22 7390.36,93.11 7359.33,94.81 7332.45,96.29 7310.59,97.57 7283.37,99.17 7255.38,100.67 7231.79,101.98 7201.56,103.76 7172.66,105.45 7149.20,106.81 7131.18,107.80 7111.16,109.00 7075.29,111.07 7040.17,112.98 7001.66,115.16 6980.53,116.36 6957.53,117.66 6936.37,118.81 6910.09,120.27 6886.92,121.57 6865.73,122.79 6838.50,124.36 6768.75,128.33 6710.13,131.73 6681.49,133.38 6655.32,134.87 6627.62,136.41 6596.42,138.15 6570.80,139.59 6529.55,141.78 6481.94,144.50 6449.37,146.30 6431.76,147.38 6406.70,148.83 6378.46,150.43 6362.12,151.34 6343.90,152.43 6318.28,153.83 6298.89,154.93 6283.99,155.70 6263.05,156.91 6236.12,158.39 6210.73,159.79 6189.77,161.04 6165.07,162.48 6138.18,164.03 6111.03,165.62 6083.07,167.17 6057.22,168.64 6037.26,169.71 6018.28,170.80 5996.37,172.09 5973.03,173.38 5950.88,174.65 5932.27,175.69 5910.83,176.88 5889.98,178.12 5860.14,179.76 5832.78,181.26 5805.15,182.89 5780.49,184.34 5752.27,186.01 5721.05,187.70 5680.67,189.93 5625.41,193.07 5585.09,195.35 5560.37,196.73 5517.40,199.25 5490.37,200.83 5459.41,202.54 5429.84,204.15 5402.20,205.74 5372.32,207.42 5348.90,208.79 5320.61,210.41 5300.95,211.48 5282.36,212.55 5256.47,213.93 5237.23,215.08 5219.17,216.11 5197.31,217.34 5178.04,218.42 5157.22,219.61 5141.95,220.47 5119.34,221.81 5092.42,223.34 5068.15,224.75 5040.41,226.34 5007.60,228.20 4974.86,230.12 4943.54,231.95 4914.35,233.56 4885.95,235.16 4849.47,237.12 4819.45,238.78 4789.72,240.47 4757.02,242.33 4721.97,244.31 4701.80,245.47 4676.42,246.94 4649.58,248.48 4626.28,249.82 4604.31,251.12 4583.99,252.32 4564.68,253.46 4544.65,254.63 4516.34,256.23 4493.50,257.50 4465.44,259.07 4436.60,260.59 4418.39,261.59 4397.60,262.79 4372.26,264.23 4353.20,265.32 4327.02,266.80 4304.19,268.13 4287.12,269.06 4268.67,270.10 4246.71,271.41 4226.71,272.56 4205.02,273.81 4186.17,274.85 4169.85,275.79 4149.63,276.95 4125.75,278.29 4124.71,278.35 4101.02,279.66 4080.72,280.82 4059.00,282.03 4042.78,282.97 4034.56,283.41 4021.04,284.17 4008.38,284.90 3996.74,285.56 3981.82,286.41 3968.89,287.14 3955.59,287.93 3936.66,289.04 3922.75,289.86 3910.66,290.57 3899.69,291.20 3893.05,291.57 3886.54,291.98 3877.02,292.51 3868.96,292.97 3860.21,293.50 3851.34,293.98 3842.58,294.46 3835.40,294.84 3826.05,295.33 3818.06,295.76 3807.92,296.28 3799.25,296.74 3792.41,297.05 3781.31,297.60 3773.55,297.99 3764.45,298.44 3754.57,298.92 3748.42,299.23 3739.35,299.68 3725.41,300.39 3712.15,301.04 3700.74,301.60 3695.53,301.86 3684.22,302.32 3676.05,302.73 3662.46,303.25 3655.02,303.52 3642.72,303.98 3627.55,304.49 3622.66,304.65 3616.11,304.84 3603.53,305.25 3587.85,305.73 3574.55,306.11 3560.13,306.53 3548.62,306.86 3535.85,307.22 3528.30,307.43 3522.05,307.64 3513.94,307.87 3503.95,308.19 3493.89,308.50 3486.02,308.77 3480.16,308.94 3471.94,309.22 3462.71,309.47 3453.43,309.77 3442.62,310.09 3431.68,310.41 3421.24,310.68 3412.76,310.90 3399.17,311.20 3383.80,311.54 3370.73,311.82 3356.09,312.10 3339.18,312.41 3321.35,312.75 3308.78,312.99 3296.34,313.28 3282.80,313.57 3259.77,314.15 3236.34,314.70 3220.19,315.07 3205.04,315.35 3183.70,315.84 3173.21,316.07 3157.49,316.41 3145.25,316.70 3131.52,317.02 3119.58,317.27 3094.51,317.84 3072.16,318.31 3056.99,318.63 3034.38,319.10 3027.82,319.24 3018.91,319.41 3007.22,319.70 2994.09,319.99 2981.78,320.29 2968.82,320.59 2955.60,320.89 2943.48,321.18 2930.95,321.47 2920.13,321.71 2908.38,321.98 2898.03,322.22 2889.05,322.41 2877.61,322.66 2861.67,322.97 2849.62,323.24 2836.00,323.52 2819.40,323.93 2807.97,324.18 2797.09,324.42 2784.85,324.68 2774.75,324.89 2762.51,325.17 2748.14,325.50 2732.57,325.84 2721.04,326.11 2711.72,326.34 2705.26,326.50 2696.86,326.70 2684.93,326.96 2673.14,327.23 2666.05,327.38 2654.27,327.61 2643.99,327.81 2634.07,328.02 2622.72,328.27 2603.63,328.68 2591.57,328.95 2573.29,329.34 2557.46,329.71 2546.96,329.96 2528.49,330.36 2515.02,330.69 2506.62,330.86 2490.84,331.23 2470.29,331.70 2450.94,332.13 2434.47,332.56 2422.29,332.87 2409.04,333.19 2396.04,333.48 2377.75,333.87 2361.37,334.24 2346.23,334.57 2328.08,334.99 2314.72,335.32 2290.73,335.83 2272.91,336.24 2253.20,336.70 2240.64,336.98 2222.64,337.37 2214.15,337.57 2204.28,337.76 2195.75,337.95 2183.00,338.23 2170.48,338.49 2158.17,338.77 2145.17,339.06 2127.48,339.44 2116.99,339.65 2106.97,339.85 2094.87,340.09 2080.13,340.40 2063.41,340.75 2045.46,341.08 2031.64,341.36 2020.13,341.55 2004.08,341.80 1991.74,342.04 1976.15,342.28 1964.40,342.50 1951.62,342.68 1943.90,342.80 1933.17,342.95 1924.26,343.08 1918.74,343.16 1912.51,343.22 1906.20,343.30 1892.27,343.50 1882.03,343.55 1871.46,343.53 1862.13,343.41 1850.11,343.14 1836.92,342.78 1822.74,342.19 1812.81,341.72 1806.16,341.37 1802.29,341.17 1799.35,340.98 1791.99,340.54 1786.63,340.21 1776.17,339.49 1767.96,338.90 1755.10,337.90 1745.24,337.09 1736.72,336.32 1727.07,335.40 1717.28,334.42 1706.53,333.27 1698.10,332.31 1680.71,330.19 1663.07,327.76 1648.80,325.74 1635.53,323.72 1622.91,321.73 1613.69,320.16 1600.15,317.83 1586.02,315.20 1566.85,311.56 1560.26,310.30 1546.58,307.73 1534.98,305.52 1523.58,303.40 1514.39,301.66 1502.56,299.43 1493.00,297.58 1485.15,296.10 1472.71,293.70 1464.38,292.04 1450.44,289.27 1440.57,287.30 1424.02,283.95 1409.95,281.11 1399.24,278.89 1384.27,275.87 1372.85,273.58 1362.05,271.41 1354.06,269.80 1346.42,268.28 1338.19,266.61 1327.06,264.36 1318.09,262.57 1311.57,261.26 1300.99,259.14 1296.18,258.18 1288.17,256.58 1283.52,255.63 1273.78,253.69 1263.00,251.54 1252.58,249.47 1243.50,247.63 1233.42,245.65 1221.02,243.15 1208.42,240.65 1196.87,238.38 1183.97,235.84 1167.34,232.55 1159.11,230.94 1149.91,229.11 1133.78,225.93 1126.92,224.58">
        <lane id="400.0_0" index="0" disallow="all" speed="13.89" length="7552.54" width="3.66" shape="8659.56,30.40 8631.81,32.06 8596.05,34.11 8569.78,35.61 8542.37,37.12 8518.41,38.48 8496.27,39.74 8472.36,41.12 8450.25,42.37 8425.13,43.76 8398.65,45.25 8375.18,46.65 8348.48,48.17 8323.82,49.54 8295.82,51.12 8266.41,52.82 8236.07,54.52 8208.01,56.09 8177.75,57.83 8148.51,59.51 8120.01,61.11 8090.23,62.71 8053.00,64.81 8026.15,66.33 7995.68,68.12 7974.09,69.31 7950.08,70.72 7927.22,71.98 7901.48,73.46 7883.18,74.54 7857.79,75.90 7831.74,77.39 7804.87,78.92 7780.33,80.26 7753.55,81.82 7730.91,83.03 7702.92,84.57 7681.68,85.79 7651.87,87.50 7629.16,88.71 7605.05,90.03 7566.80,92.21 7545.64,93.45 7512.40,95.31 7484.45,96.88 7457.35,98.44 7424.26,100.36 7390.87,102.25 7359.83,103.95 7332.97,105.43 7311.13,106.70 7283.88,108.31 7255.88,109.81 7232.31,111.12 7202.10,112.89 7173.19,114.58 7149.72,115.95 7131.71,116.93 7111.69,118.13 7075.80,120.21 7040.68,122.12 7002.18,124.30 6981.05,125.50 6958.04,126.80 6936.87,127.95 6910.60,129.41 6887.44,130.71 6866.26,131.92 6839.02,133.50 6769.27,137.46 6710.66,140.86 6682.01,142.52 6655.83,144.01 6628.13,145.55 6596.93,147.29 6571.30,148.73 6530.05,150.92 6482.45,153.64 6449.90,155.43 6432.30,156.51 6407.22,157.97 6378.97,159.57 6362.65,160.47 6344.42,161.57 6318.79,162.97 6299.39,164.07 6284.49,164.84 6263.56,166.05 6236.62,167.53 6211.25,168.93 6190.31,170.17 6165.60,171.61 6138.71,173.16 6111.55,174.76 6083.58,176.31 6057.73,177.78 6037.77,178.85 6018.81,179.93 5996.89,181.23 5973.54,182.52 5951.40,183.79 5932.78,184.83 5911.35,186.01 5890.50,187.26 5860.64,188.90 5833.30,190.40 5805.69,192.02 5781.03,193.47 5752.79,195.15 5721.55,196.84 5681.18,199.07 5625.93,202.21 5585.60,204.49 5560.89,205.87 5517.94,208.38 5490.89,209.97 5459.91,211.68 5430.35,213.29 5402.72,214.88 5372.84,216.56 5349.43,217.92 5321.12,219.55 5301.46,220.62 5282.87,221.69 5256.99,223.07 5237.76,224.21 5219.69,225.25 5197.82,226.48 5178.56,227.56 5157.74,228.75 5142.48,229.60 5119.87,230.94 5092.94,232.47 5068.68,233.88 5040.93,235.48 5008.13,237.33 4975.39,239.25 4944.06,241.09 4914.86,242.70 4886.45,244.30 4849.97,246.26 4819.96,247.92 4790.24,249.61 4757.54,251.47 4722.49,253.45 4702.33,254.60 4676.95,256.07 4650.10,257.61 4626.81,258.95 4604.85,260.25 4584.53,261.45 4565.22,262.59 4545.17,263.77 4516.85,265.37 4494.01,266.64 4465.94,268.21 4437.09,269.73 4418.91,270.73 4398.12,271.93 4372.78,273.37 4353.72,274.46 4327.54,275.93 4304.71,277.27 4287.63,278.20 4269.20,279.23 4247.25,280.54 4227.24,281.69 4205.54,282.95 4186.68,283.99 4170.37,284.92 4150.15,286.09 4126.26,287.43 4125.22,287.49 4101.53,288.80 4081.24,289.96 4059.52,291.17 4043.30,292.11 4035.06,292.55 4021.56,293.31 4008.90,294.04 3997.26,294.70 3982.34,295.55 3969.42,296.27 3956.13,297.06 3937.20,298.17 3923.29,298.99 3911.19,299.70 3900.21,300.34 3893.59,300.70 3887.08,301.11 3877.53,301.65 3869.50,302.10 3860.73,302.64 3851.84,303.12 3843.07,303.60 3835.88,303.98 3826.53,304.47 3818.54,304.90 3808.40,305.42 3799.70,305.88 3792.85,306.19 3781.77,306.74 3774.01,307.13 3764.90,307.58 3755.02,308.06 3748.88,308.37 3739.81,308.82 3725.87,309.53 3712.60,310.18 3701.19,310.74 3695.94,311.00 3684.63,311.46 3676.45,311.87 3662.80,312.39 3655.36,312.66 3643.04,313.12 3627.86,313.63 3622.94,313.80 3616.40,313.99 3603.82,314.40 3588.12,314.88 3574.81,315.26 3560.39,315.68 3548.88,316.01 3536.11,316.37 3528.58,316.58 3522.33,316.79 3514.22,317.02 3504.24,317.34 3494.19,317.65 3486.31,317.92 3480.45,318.09 3472.22,318.37 3462.98,318.62 3453.71,318.92 3442.89,319.24 3431.93,319.56 3421.48,319.83 3412.98,320.05 3399.37,320.35 3384.00,320.69 3370.91,320.97 3356.26,321.25 3339.35,321.56 3321.52,321.90 3308.97,322.14 3296.54,322.43 3283.02,322.72 3259.99,323.30 3236.55,323.85 3220.38,324.22 3205.23,324.50 3183.91,324.99 3173.41,325.22 3157.70,325.56 3145.46,325.85 3131.72,326.17 3119.78,326.42 3094.71,326.99 3072.35,327.46 3057.18,327.78 3034.57,328.25 3028.00,328.39 3019.11,328.56 3007.43,328.85 2994.30,329.14 2982.00,329.44 2969.03,329.74 2955.81,330.04 2943.70,330.33 2931.16,330.62 2920.34,330.86 2908.59,331.13 2898.23,331.37 2889.25,331.56 2877.80,331.81 2861.86,332.12 2849.82,332.39 2836.21,332.67 2819.62,333.08 2808.17,333.33 2797.29,333.57 2785.04,333.83 2774.95,334.04 2762.72,334.32 2748.34,334.65 2732.78,334.99 2721.26,335.26 2711.95,335.49 2705.48,335.65 2697.07,335.85 2685.13,336.11 2673.34,336.38 2666.23,336.53 2654.45,336.76 2644.18,336.96 2634.27,337.17 2622.92,337.42 2603.83,337.83 2591.77,338.10 2573.49,338.49 2557.68,338.86 2547.17,339.11 2528.70,339.51 2515.23,339.84 2506.82,340.01 2491.05,340.38 2470.50,340.85 2451.16,341.28 2434.71,341.71 2422.52,342.02 2409.25,342.34 2396.24,342.63 2377.95,343.02 2361.57,343.39 2346.44,343.72 2328.30,344.14 2314.93,344.47 2290.93,344.98 2273.12,345.39 2253.41,345.85 2240.84,346.13 2222.84,346.52 2214.34,346.72 2204.47,346.91 2195.95,347.10 2183.20,347.38 2170.68,347.64 2158.38,347.92 2145.37,348.21 2127.67,348.59 2117.17,348.80 2107.15,349.00 2095.06,349.24 2080.32,349.55 2063.59,349.90 2045.64,350.23 2031.81,350.51 2020.28,350.70 2004.24,350.95 1991.90,351.19 1976.30,351.43 1964.55,351.65 1951.75,351.83 1944.03,351.95 1933.30,352.10 1924.39,352.23 1918.85,352.31 1912.61,352.37 1906.33,352.45 1892.36,352.65 1882.04,352.70 1871.39,352.68 1861.97,352.56 1849.88,352.29 1836.60,351.92 1822.34,351.33 1812.36,350.86 1805.68,350.51 1801.77,350.31 1798.79,350.11 1791.44,349.67 1786.02,349.34 1775.53,348.62 1767.27,348.02 1754.37,347.02 1744.46,346.21 1735.87,345.43 1726.18,344.51 1716.34,343.52 1705.53,342.37 1697.03,341.40 1679.53,339.26 1661.81,336.82 1647.47,334.79 1634.13,332.76 1621.43,330.76 1612.14,329.18 1598.54,326.84 1584.33,324.19 1565.14,320.55 1558.56,319.29 1544.88,316.72 1533.29,314.51 1521.89,312.39 1512.69,310.65 1500.85,308.42 1491.28,306.57 1483.43,305.09 1470.95,302.68 1462.59,301.01 1448.65,298.24 1438.76,296.27 1422.21,292.92 1408.12,290.08 1397.41,287.86 1382.47,284.84 1371.05,282.55 1360.25,280.38 1352.26,278.77 1344.62,277.25 1336.37,275.58 1325.26,273.33 1316.29,271.54 1309.77,270.23 1299.19,268.11 1294.39,267.15 1286.36,265.55 1281.72,264.60 1271.99,262.66 1261.21,260.51 1250.78,258.44 1241.71,256.60 1231.63,254.62 1219.23,252.12 1206.65,249.63 1195.10,247.36 1182.20,244.82 1165.57,241.53 1157.34,239.92 1148.13,238.09 1132.01,234.91 1125.15,233.56" type="shoulder"/>
        <lane id="400.0_1" index="1" speed="13.89" length="7552.54" width="3.66" shape="8659.34,26.75 8631.60,28.41 8595.84,30.45 8569.58,31.95 8542.17,33.46 8518.20,34.82 8496.06,36.08 8472.15,37.46 8450.05,38.71 8424.93,40.10 8398.44,41.60 8374.97,43.00 8348.28,44.51 8323.62,45.88 8295.61,47.46 8266.20,49.16 8235.87,50.86 8207.80,52.43 8177.54,54.18 8148.30,55.85 8119.81,57.45 8090.03,59.05 8052.79,61.15 8025.94,62.68 7995.47,64.46 7973.88,65.65 7949.87,67.06 7927.01,68.32 7901.27,69.81 7882.98,70.88 7857.58,72.24 7831.53,73.73 7804.67,75.26 7780.12,76.60 7753.35,78.16 7730.71,79.37 7702.72,80.91 7681.47,82.14 7651.66,83.84 7628.97,85.05 7604.85,86.37 7566.59,88.56 7545.43,89.79 7512.20,91.65 7484.24,93.22 7457.14,94.79 7424.05,96.70 7390.67,98.59 7359.63,100.29 7332.76,101.77 7310.91,103.05 7283.68,104.65 7255.68,106.15 7232.10,107.46 7201.88,109.24 7172.98,110.93 7149.51,112.29 7131.50,113.28 7111.48,114.48 7075.60,116.55 7040.47,118.46 7001.97,120.64 6980.84,121.84 6957.83,123.14 6936.67,124.29 6910.40,125.75 6887.23,127.05 6866.05,128.27 6838.81,129.84 6769.06,133.81 6710.45,137.21 6681.80,138.86 6655.63,140.35 6627.93,141.89 6596.73,143.63 6571.10,145.07 6529.85,147.26 6482.25,149.98 6449.69,151.78 6432.08,152.86 6407.01,154.31 6378.77,155.91 6362.44,156.82 6344.21,157.91 6318.58,159.31 6299.19,160.41 6284.29,161.18 6263.36,162.39 6236.42,163.87 6211.04,165.27 6190.09,166.52 6165.39,167.96 6138.50,169.51 6111.34,171.10 6083.38,172.65 6057.52,174.12 6037.56,175.19 6018.60,176.28 5996.68,177.57 5973.34,178.86 5951.19,180.13 5932.58,181.17 5911.14,182.36 5890.29,183.60 5860.44,185.24 5833.09,186.74 5805.47,188.37 5780.81,189.82 5752.58,191.49 5721.35,193.18 5680.98,195.41 5625.72,198.55 5585.40,200.83 5560.68,202.21 5517.72,204.73 5490.68,206.31 5459.71,208.02 5430.15,209.63 5402.51,211.22 5372.63,212.90 5349.22,214.27 5320.92,215.89 5301.26,216.96 5282.66,218.03 5256.78,219.41 5237.55,220.56 5219.48,221.59 5197.62,222.82 5178.35,223.90 5157.53,225.09 5142.27,225.95 5119.66,227.29 5092.73,228.82 5068.47,230.23 5040.72,231.82 5007.92,233.68 4975.18,235.60 4943.85,237.43 4914.66,239.04 4886.25,240.64 4849.77,242.60 4819.76,244.26 4790.03,245.95 4757.33,247.81 4722.28,249.79 4702.12,250.95 4676.74,252.42 4649.89,253.96 4626.60,255.30 4604.63,256.60 4584.31,257.80 4565.00,258.94 4544.96,260.11 4516.65,261.71 4493.81,262.98 4465.74,264.55 4436.89,266.07 4418.70,267.07 4397.91,268.27 4372.57,269.71 4353.51,270.80 4327.33,272.28 4304.50,273.61 4287.42,274.54 4268.99,275.58 4247.03,276.89 4227.03,278.04 4205.33,279.29 4186.48,280.33 4170.16,281.27 4149.94,282.43 4126.06,283.77 4125.01,283.83 4101.33,285.14 4081.03,286.30 4059.31,287.51 4043.09,288.45 4034.86,288.89 4021.35,289.65 4008.69,290.38 3997.05,291.04 3982.13,291.89 3969.21,292.62 3955.91,293.41 3936.98,294.52 3923.07,295.34 3910.98,296.05 3900.00,296.68 3893.38,297.05 3886.86,297.46 3877.33,297.99 3869.28,298.45 3860.52,298.98 3851.64,299.46 3842.88,299.94 3835.69,300.32 3826.34,300.81 3818.35,301.24 3808.21,301.76 3799.52,302.22 3792.67,302.53 3781.58,303.08 3773.82,303.47 3764.72,303.92 3754.84,304.40 3748.69,304.71 3739.63,305.16 3725.68,305.87 3712.42,306.52 3701.01,307.08 3695.78,307.34 3684.46,307.80 3676.29,308.21 3662.67,308.74 3655.22,309.01 3642.91,309.47 3627.73,309.98 3622.83,310.14 3616.28,310.33 3603.70,310.74 3588.01,311.22 3574.71,311.60 3560.29,312.02 3548.78,312.35 3536.00,312.71 3528.47,312.92 3522.22,313.13 3514.11,313.36 3504.12,313.68 3494.07,313.99 3486.20,314.26 3480.34,314.43 3472.11,314.71 3462.87,314.96 3453.60,315.26 3442.78,315.58 3431.83,315.90 3421.38,316.17 3412.89,316.39 3399.29,316.69 3383.92,317.03 3370.84,317.31 3356.19,317.59 3339.28,317.90 3321.45,318.24 3308.90,318.48 3296.46,318.77 3282.93,319.06 3259.90,319.64 3236.47,320.19 3220.30,320.56 3205.16,320.84 3183.82,321.33 3173.33,321.56 3157.61,321.90 3145.38,322.19 3131.64,322.51 3119.70,322.76 3094.63,323.33 3072.28,323.80 3057.10,324.12 3034.49,324.59 3027.93,324.73 3019.03,324.90 3007.35,325.19 2994.22,325.48 2981.91,325.78 2968.95,326.08 2955.73,326.38 2943.61,326.67 2931.07,326.96 2920.25,327.20 2908.51,327.47 2898.15,327.71 2889.17,327.90 2877.72,328.15 2861.78,328.46 2849.74,328.73 2836.13,329.01 2819.53,329.42 2808.09,329.67 2797.21,329.91 2784.97,330.17 2774.87,330.38 2762.64,330.66 2748.26,330.99 2732.69,331.33 2721.17,331.60 2711.86,331.83 2705.39,331.99 2696.98,332.19 2685.05,332.45 2673.26,332.72 2666.16,332.87 2654.38,333.10 2644.10,333.30 2634.19,333.51 2622.84,333.76 2603.75,334.17 2591.69,334.44 2573.41,334.83 2557.59,335.20 2547.08,335.45 2528.62,335.85 2515.15,336.18 2506.74,336.35 2490.97,336.72 2470.41,337.19 2451.07,337.62 2434.61,338.05 2422.43,338.36 2409.17,338.68 2396.16,338.97 2377.87,339.36 2361.49,339.73 2346.35,340.06 2328.21,340.48 2314.84,340.81 2290.85,341.32 2273.04,341.73 2253.33,342.19 2240.76,342.47 2222.76,342.86 2214.27,343.06 2204.39,343.25 2195.87,343.44 2183.12,343.72 2170.60,343.98 2158.29,344.26 2145.29,344.55 2127.59,344.93 2117.10,345.14 2107.08,345.34 2094.98,345.58 2080.25,345.89 2063.52,346.24 2045.57,346.57 2031.74,346.85 2020.22,347.04 2004.17,347.29 1991.83,347.53 1976.24,347.77 1964.49,347.99 1951.70,348.17 1943.98,348.29 1933.25,348.44 1924.34,348.57 1918.81,348.65 1912.57,348.71 1906.28,348.79 1892.33,348.99 1882.04,349.04 1871.42,349.02 1862.03,348.90 1849.97,348.63 1836.73,348.27 1822.50,347.67 1812.54,347.20 1805.87,346.85 1801.98,346.65 1799.01,346.46 1791.66,346.02 1786.27,345.69 1775.79,344.97 1767.55,344.37 1754.66,343.37 1744.77,342.56 1736.21,341.79 1726.54,340.86 1716.71,339.88 1705.93,338.73 1697.46,337.76 1680.00,335.63 1662.31,333.20 1648.00,331.17 1634.69,329.15 1622.02,327.15 1612.76,325.57 1599.18,323.23 1585.00,320.60 1565.82,316.95 1559.24,315.69 1545.56,313.12 1533.96,310.92 1522.57,308.80 1513.37,307.05 1501.53,304.82 1491.97,302.97 1484.12,301.49 1471.66,299.09 1463.31,297.42 1449.37,294.65 1439.49,292.68 1422.93,289.33 1408.85,286.49 1398.14,284.27 1383.19,281.25 1371.77,278.96 1360.97,276.79 1352.98,275.18 1345.34,273.66 1337.10,271.99 1325.98,269.74 1317.01,267.95 1310.49,266.64 1299.91,264.52 1295.10,263.56 1287.09,261.96 1282.44,261.01 1272.71,259.07 1261.93,256.92 1251.50,254.85 1242.43,253.01 1232.35,251.03 1219.94,248.53 1207.36,246.04 1195.81,243.77 1182.91,241.23 1166.28,237.94 1158.05,236.33 1148.84,234.50 1132.72,231.32 1125.86,229.97"/>
        <lane id="400.0_2" index="2" speed="13.89" length="7552.54" width="3.66" shape="8659.12,23.10 8631.39,24.76 8595.63,26.80 8569.37,28.30 8541.96,29.81 8517.99,31.17 8495.85,32.43 8471.94,33.81 8449.84,35.06 8424.72,36.45 8398.23,37.95 8374.76,39.35 8348.07,40.86 8323.41,42.23 8295.40,43.81 8265.99,45.51 8235.66,47.21 8207.59,48.78 8177.33,50.53 8148.09,52.20 8119.61,53.80 8089.83,55.40 8052.58,57.50 8025.73,59.03 7995.26,60.81 7973.67,62.00 7949.66,63.41 7926.80,64.67 7901.06,66.16 7882.77,67.23 7857.38,68.59 7831.32,70.08 7804.46,71.61 7779.91,72.95 7753.14,74.51 7730.51,75.72 7702.51,77.26 7681.26,78.49 7651.46,80.19 7628.77,81.40 7604.64,82.72 7566.38,84.91 7545.22,86.14 7511.99,88.00 7484.03,89.57 7456.93,91.14 7423.84,93.05 7390.46,94.94 7359.43,96.64 7332.55,98.12 7310.70,99.40 7283.47,101.00 7255.48,102.50 7231.89,103.81 7201.67,105.59 7172.77,107.28 7149.30,108.64 7131.29,109.63 7111.27,110.83 7075.39,112.90 7040.27,114.81 7001.76,116.99 6980.63,118.19 6957.63,119.49 6936.47,120.64 6910.19,122.10 6887.02,123.40 6865.84,124.62 6838.60,126.19 6768.85,130.16 6710.24,133.56 6681.59,135.21 6655.42,136.70 6627.72,138.24 6596.52,139.98 6570.90,141.42 6529.65,143.61 6482.04,146.33 6449.48,148.13 6431.87,149.21 6406.80,150.66 6378.56,152.26 6362.23,153.17 6344.00,154.26 6318.38,155.66 6298.99,156.76 6284.09,157.53 6263.15,158.74 6236.22,160.22 6210.83,161.62 6189.88,162.87 6165.18,164.31 6138.29,165.86 6111.13,167.45 6083.17,169.00 6057.32,170.47 6037.36,171.54 6018.39,172.63 5996.47,173.92 5973.13,175.21 5950.98,176.48 5932.37,177.52 5910.93,178.71 5890.08,179.95 5860.24,181.59 5832.88,183.09 5805.26,184.72 5780.60,186.17 5752.37,187.84 5721.15,189.53 5680.77,191.76 5625.51,194.90 5585.19,197.18 5560.47,198.56 5517.51,201.08 5490.47,202.66 5459.51,204.37 5429.94,205.98 5402.30,207.57 5372.42,209.25 5349.01,210.62 5320.71,212.24 5301.05,213.31 5282.46,214.38 5256.57,215.76 5237.34,216.91 5219.27,217.94 5197.41,219.17 5178.14,220.25 5157.32,221.44 5142.06,222.30 5119.45,223.64 5092.52,225.17 5068.26,226.58 5040.51,228.17 5007.71,230.03 4974.97,231.95 4943.64,233.78 4914.45,235.39 4886.05,236.99 4849.57,238.95 4819.55,240.61 4789.82,242.30 4757.12,244.16 4722.07,246.14 4701.91,247.30 4676.53,248.77 4649.68,250.31 4626.39,251.65 4604.42,252.95 4584.10,254.15 4564.79,255.29 4544.75,256.46 4516.44,258.06 4493.60,259.33 4465.54,260.90 4436.70,262.42 4418.49,263.42 4397.70,264.62 4372.36,266.06 4353.30,267.15 4327.12,268.63 4304.29,269.96 4287.22,270.89 4268.78,271.93 4246.82,273.24 4226.82,274.39 4205.12,275.64 4186.27,276.68 4169.95,277.62 4149.73,278.78 4125.85,280.12 4124.81,280.18 4101.12,281.49 4080.82,282.65 4059.10,283.86 4042.88,284.80 4034.66,285.24 4021.14,286.00 4008.48,286.73 3996.84,287.39 3981.92,288.24 3969.00,288.97 3955.70,289.76 3936.77,290.87 3922.86,291.69 3910.77,292.40 3899.79,293.03 3893.16,293.40 3886.65,293.81 3877.12,294.34 3869.07,294.80 3860.31,295.33 3851.44,295.81 3842.68,296.29 3835.50,296.67 3826.15,297.16 3818.16,297.59 3808.02,298.11 3799.34,298.57 3792.50,298.88 3781.40,299.43 3773.64,299.82 3764.54,300.27 3754.66,300.75 3748.51,301.06 3739.44,301.51 3725.50,302.22 3712.24,302.87 3700.83,303.43 3695.61,303.69 3684.30,304.15 3676.13,304.56 3662.53,305.08 3655.09,305.35 3642.78,305.81 3627.61,306.32 3622.72,306.48 3616.17,306.67 3603.59,307.08 3587.90,307.56 3574.60,307.94 3560.18,308.36 3548.67,308.69 3535.90,309.05 3528.36,309.26 3522.11,309.47 3514.00,309.70 3504.01,310.02 3493.95,310.33 3486.08,310.60 3480.22,310.77 3472.00,311.05 3462.76,311.30 3453.49,311.60 3442.67,311.92 3431.73,312.24 3421.29,312.51 3412.80,312.73 3399.21,313.03 3383.84,313.37 3370.77,313.65 3356.12,313.93 3339.21,314.24 3321.38,314.58 3308.82,314.82 3296.38,315.11 3282.84,315.40 3259.81,315.98 3236.38,316.53 3220.23,316.90 3205.08,317.18 3183.74,317.67 3173.25,317.90 3157.53,318.24 3145.29,318.53 3131.56,318.85 3119.62,319.10 3094.55,319.67 3072.20,320.14 3057.03,320.46 3034.42,320.93 3027.86,321.07 3018.95,321.24 3007.26,321.53 2994.13,321.82 2981.82,322.12 2968.86,322.42 2955.64,322.72 2943.52,323.01 2930.99,323.30 2920.17,323.54 2908.42,323.81 2898.07,324.05 2889.09,324.24 2877.65,324.49 2861.71,324.80 2849.66,325.07 2836.04,325.35 2819.44,325.76 2808.01,326.01 2797.13,326.25 2784.89,326.51 2774.79,326.72 2762.55,327.00 2748.18,327.33 2732.61,327.67 2721.08,327.94 2711.77,328.17 2705.30,328.33 2696.90,328.53 2684.97,328.79 2673.18,329.06 2666.09,329.21 2654.31,329.44 2644.03,329.64 2634.11,329.85 2622.76,330.10 2603.67,330.51 2591.61,330.78 2573.33,331.17 2557.50,331.54 2547.00,331.79 2528.53,332.19 2515.06,332.52 2506.66,332.69 2490.88,333.06 2470.33,333.53 2450.98,333.96 2434.52,334.39 2422.34,334.70 2409.08,335.02 2396.08,335.31 2377.79,335.70 2361.41,336.07 2346.27,336.40 2328.12,336.82 2314.76,337.15 2290.77,337.66 2272.95,338.07 2253.24,338.53 2240.68,338.81 2222.68,339.20 2214.19,339.40 2204.32,339.59 2195.79,339.78 2183.04,340.06 2170.52,340.32 2158.21,340.60 2145.21,340.89 2127.52,341.27 2117.03,341.48 2107.01,341.68 2094.91,341.92 2080.17,342.23 2063.45,342.58 2045.50,342.91 2031.67,343.19 2020.16,343.38 2004.11,343.63 1991.77,343.87 1976.18,344.11 1964.43,344.33 1951.65,344.51 1943.93,344.63 1933.20,344.78 1924.29,344.91 1918.76,344.99 1912.53,345.05 1906.23,345.13 1892.29,345.33 1882.03,345.38 1871.45,345.36 1862.10,345.24 1850.06,344.97 1836.86,344.61 1822.66,344.02 1812.72,343.55 1806.06,343.20 1802.19,343.00 1799.24,342.81 1791.88,342.37 1786.51,342.04 1776.04,341.32 1767.82,340.72 1754.95,339.72 1745.08,338.91 1736.55,338.14 1726.89,337.22 1717.09,336.24 1706.33,335.09 1697.89,334.13 1680.47,332.00 1662.82,329.57 1648.53,327.55 1635.25,325.53 1622.61,323.54 1613.38,321.96 1599.83,319.63 1585.68,317.00 1566.51,313.36 1559.92,312.10 1546.24,309.53 1534.64,307.32 1523.24,305.20 1514.05,303.46 1502.22,301.23 1492.66,299.38 1484.81,297.90 1472.36,295.50 1464.02,293.83 1450.08,291.06 1440.21,289.09 1423.66,285.74 1409.58,282.90 1398.87,280.68 1383.91,277.66 1372.49,275.37 1361.69,273.20 1353.70,271.59 1346.06,270.07 1337.83,268.40 1326.70,266.15 1317.73,264.36 1311.21,263.05 1300.63,260.93 1295.82,259.97 1287.81,258.37 1283.16,257.42 1273.42,255.48 1262.64,253.33 1252.22,251.26 1243.14,249.42 1233.06,247.44 1220.66,244.94 1208.07,242.45 1196.52,240.18 1183.62,237.64 1166.99,234.35 1158.76,232.74 1149.55,230.91 1133.43,227.73 1126.57,226.38"/>
    </edge>