<?xml version='1.0' encoding='utf-8'?>
<connections>
    <connection from="416.0" to="417.0" fromLane="0" toLane="1" />
    <connection from="416.0" to="417.0" fromLane="1" toLane="2" />
    <connection from="428.0" to="415.0" fromLane="2" toLane="1" />
    <connection from="428.0" to="415.0" fromLane="1" toLane="0" />
    <connection from="428.0" to="418.0" fromLane="1" toLane="0" />
    <connection from="445.0" to="447.0" fromLane="1" toLane="0" />
    <connection from="445.0" to="447.0" fromLane="2" toLane="1" />
</connections>