<?xml version="1.0" encoding="UTF-8"?>

<!-- generated on 2025-10-19 17:35:17 by Eclipse SUMO netconvert Version 1.23.1
<netconvertConfiguration xmlns:xsi="http://www.w3.org/2001/XMLSchema-instance" xsi:noNamespaceSchemaLocation="http://sumo.dlr.de/xsd/netconvertConfiguration.xsd">

    <input>
        <node-files value="/home/sdai/harry/TeraSim/jupiter/eb/jupiter_eb_tiles/tile_0068/tile_0068.nod.xml"/>
        <edge-files value="/home/sdai/harry/TeraSim/jupiter/eb/jupiter_eb_tiles/tile_0068/tile_0068.edg.xml"/>
        <connection-files value="/home/sdai/harry/TeraSim/jupiter/eb/jupiter_eb_tiles/tile_0068/tile_0068.con.xml"/>
    </input>

    <output>
        <output-file value="/home/sdai/harry/TeraSim/jupiter/eb/jupiter_eb_tiles/tile_0068/tile_0068.net.xml"/>
        <output.street-names value="true"/>
        <output.original-names value="true"/>
    </output>

    <processing>
        <geometry.remove value="false"/>
        <geometry.min-dist value="0.5"/>
        <edges.join value="false"/>
    </processing>

    <junctions>
        <no-internal-links value="false"/>
        <no-turnarounds value="true"/>
        <junctions.join value="true"/>
        <junctions.join-dist value="10"/>
        <junctions.corner-detail value="5"/>
        <junctions.internal-link-detail value="5"/>
        <junctions.limit-turn-speed value="5.5"/>
        <rectangular-lane-cut value="true"/>
        <check-lane-foes.all value="true"/>
    </junctions>

</netconvertConfiguration>
-->

<net version="1.20" junctionCornerDetail="5" junctionLinkDetail="5" rectangularLaneCut="true" limitTurnSpeed="5.50" checkLaneFoesAll="1" xmlns:xsi="http://www.w3.org/2001/XMLSchema-instance" xsi:noNamespaceSchemaLocation="http://sumo.dlr.de/xsd/net_file.xsd">

    <location netOffset="-667635.59,-3284926.59" convBoundary="0.00,0.00,9260.63,1104.35" origBoundary="0.00,0.00,677036.30,3286031.63" projParameter="!"/>

    <edge id=":junction_28_0" function="internal">
        <lane id=":junction_28_0_0" index="0" speed="13.89" length="88.70" width="3.66" shape="1891.01,833.81 1971.45,871.20"/>
    </edge>
    <edge id=":junction_28_1" function="internal">
        <lane id=":junction_28_1_0" index="0" speed="13.89" length="88.57" width="3.66" shape="1889.67,837.15 1971.45,871.20"/>
        <lane id=":junction_28_1_1" index="1" speed="13.89" length="88.57" width="3.66" shape="1888.27,840.53 1970.04,874.57"/>
    </edge>
    <edge id=":junction_84_0" function="internal">
        <lane id=":junction_84_0_0" index="0" speed="13.89" length="78.79" width="3.66" shape="917.43,431.94 934.18,438.34 957.90,446.87 979.92,454.61 991.58,458.58"/>
    </edge>
    <edge id=":junction_84_1" function="internal">
        <lane id=":junction_84_1_0" index="0" speed="13.89" length="78.87" width="3.66" shape="917.43,431.94 990.20,462.37"/>
        <lane id=":junction_84_1_1" index="1" speed="13.89" length="78.87" width="3.66" shape="916.02,435.31 988.78,465.75"/>
    </edge>
    <edge id=":junction_85_0" function="internal">
        <lane id=":junction_85_0_0" index="0" speed="13.89" length="104.47" width="3.66" shape="8145.72,1093.50 8250.19,1093.99"/>
        <lane id=":junction_85_0_1" index="1" speed="13.89" length="104.47" width="3.66" shape="8145.70,1097.16 8250.17,1097.65"/>
    </edge>
    <edge id=":node_414_end_0" function="internal">
        <lane id=":node_414_end_0_0" index="0" speed="13.89" length="0.30" width="3.66" shape="1313.71,597.20 1313.98,597.32"/>
        <lane id=":node_414_end_0_1" index="1" speed="13.89" length="0.30" width="3.66" shape="1312.29,600.58 1312.57,600.69"/>
    </edge>
    <edge id=":node_414_start_0" function="internal">
        <lane id=":node_414_start_0_0" index="0" speed="13.89" length="3.00" width="3.66" shape="1067.70,494.72 1070.47,495.87"/>
        <lane id=":node_414_start_0_1" index="1" speed="13.89" length="3.00" width="3.66" shape="1066.30,498.10 1069.07,499.25"/>
    </edge>
    <edge id=":node_416_start_0" function="internal">
        <lane id=":node_416_start_0_0" index="0" speed="13.89" length="3.00" width="3.66" shape="1743.06,776.11 1745.83,777.26"/>
        <lane id=":node_416_start_0_1" index="1" speed="13.89" length="3.00" width="3.66" shape="1741.66,779.49 1744.43,780.64"/>
    </edge>
    <edge id=":node_417_end_0" function="internal">
        <lane id=":node_417_end_0_0" index="0" speed="13.89" length="0.30" width="3.66" shape="2990.82,1069.16 2991.13,1069.16"/>
        <lane id=":node_417_end_0_1" index="1" speed="13.89" length="0.30" width="3.66" shape="2990.82,1072.82 2991.10,1072.82"/>
    </edge>
    <edge id=":node_419_end_0" function="internal">
        <lane id=":node_419_end_0_0" index="0" speed="13.89" length="0.30" width="3.66" shape="3324.77,1070.90 3325.07,1070.90"/>
        <lane id=":node_419_end_0_1" index="1" speed="13.89" length="0.30" width="3.66" shape="3324.76,1074.56 3325.07,1074.56"/>
    </edge>
    <edge id=":node_419_start_0" function="internal">
        <lane id=":node_419_start_0_0" index="0" speed="13.89" length="0.30" width="3.66" shape="3052.95,1069.58 3053.25,1069.58"/>
        <lane id=":node_419_start_0_1" index="1" speed="13.89" length="0.30" width="3.66" shape="3052.93,1073.24 3053.23,1073.24"/>
    </edge>
    <edge id=":node_421_end_0" function="internal">
        <lane id=":node_421_end_0_0" index="0" speed="13.89" length="0.30" width="3.66" shape="1494.00,672.57 1494.28,672.68"/>
        <lane id=":node_421_end_0_1" index="1" speed="13.89" length="0.30" width="3.66" shape="1492.60,675.95 1492.87,676.06"/>
    </edge>
    <edge id=":node_421_start_0" function="internal">
        <lane id=":node_421_start_0_0" index="0" speed="13.89" length="0.30" width="3.66" shape="1363.55,618.13 1363.82,618.25"/>
        <lane id=":node_421_start_0_1" index="1" speed="13.89" length="0.30" width="3.66" shape="1362.13,621.51 1362.41,621.62"/>
    </edge>
    <edge id=":node_422_end_0" function="internal">
        <lane id=":node_422_end_0_0" index="0" speed="13.89" length="0.10" width="3.66" shape="6089.17,1083.48 6089.17,1083.48"/>
        <lane id=":node_422_end_0_1" index="1" speed="13.89" length="0.10" width="3.66" shape="6089.15,1087.14 6089.15,1087.14"/>
    </edge>
    <edge id=":node_422_start_0" function="internal">
        <lane id=":node_422_start_0_0" index="0" speed="13.89" length="0.30" width="3.66" shape="3549.76,1071.58 3550.06,1071.58"/>
        <lane id=":node_422_start_0_1" index="1" speed="13.89" length="0.30" width="3.66" shape="3549.74,1075.24 3550.04,1075.24"/>
    </edge>
    <edge id=":node_423_end_0" function="internal">
        <lane id=":node_423_end_0_0" index="0" speed="13.89" length="0.30" width="3.66" shape="3418.41,1071.19 3418.71,1071.19"/>
        <lane id=":node_423_end_0_1" index="1" speed="13.89" length="0.30" width="3.66" shape="3418.40,1074.85 3418.70,1074.85"/>
    </edge>
    <edge id=":node_427_start_0" function="internal">
        <lane id=":node_427_start_0_0" index="0" speed="13.89" length="0.30" width="3.66" shape="3477.08,1071.37 3477.38,1071.37"/>
        <lane id=":node_427_start_0_1" index="1" speed="13.89" length="0.30" width="3.66" shape="3477.07,1075.03 3477.37,1075.03"/>
    </edge>
    <edge id=":node_438_end_0" function="internal">
        <lane id=":node_438_end_0_0" index="0" speed="13.89" length="0.10" width="3.66" shape="6147.58,1083.77 6147.58,1083.77"/>
        <lane id=":node_438_end_0_1" index="1" speed="13.89" length="0.10" width="3.66" shape="6147.56,1087.43 6147.56,1087.43"/>
    </edge>
    <edge id=":node_439_end_0" function="internal">
        <lane id=":node_439_end_0_0" index="0" speed="13.89" length="0.30" width="3.66" shape="7915.15,1092.48 7915.45,1092.48"/>
        <lane id=":node_439_end_0_1" index="1" speed="13.89" length="0.30" width="3.66" shape="7915.13,1096.14 7915.43,1096.14"/>
    </edge>
    <edge id=":node_439_start_0" function="internal">
        <lane id=":node_439_start_0_0" index="0" speed="13.89" length="0.30" width="3.66" shape="7864.12,1092.25 7864.41,1092.25"/>
        <lane id=":node_439_start_0_1" index="1" speed="13.89" length="0.30" width="3.66" shape="7864.10,1095.91 7864.40,1095.91"/>
    </edge>
    <edge id=":node_440_end_0" function="internal">
        <lane id=":node_440_end_0_0" index="0" speed="13.89" length="0.30" width="3.66" shape="7628.15,1091.02 7628.45,1091.02"/>
        <lane id=":node_440_end_0_1" index="1" speed="13.89" length="0.30" width="3.66" shape="7628.13,1094.68 7628.42,1094.68"/>
    </edge>
    <edge id=":node_440_start_0" function="internal">
        <lane id=":node_440_start_0_0" index="0" speed="13.89" length="0.30" width="3.66" shape="7576.11,1090.75 7576.40,1090.75"/>
        <lane id=":node_440_start_0_1" index="1" speed="13.89" length="0.30" width="3.66" shape="7576.09,1094.41 7576.39,1094.41"/>
    </edge>
    <edge id=":node_443_start_0" function="internal">
        <lane id=":node_443_start_0_0" index="0" speed="13.89" length="3.00" width="3.66" shape="8385.69,1094.63 8388.69,1094.64"/>
        <lane id=":node_443_start_0_1" index="1" speed="13.89" length="3.00" width="3.66" shape="8385.67,1098.29 8388.67,1098.30"/>
    </edge>
    <edge id=":node_445_start_0" function="internal">
        <lane id=":node_445_start_0_0" index="0" speed="13.89" length="0.10" width="3.66" shape="7992.45,1092.80 7992.45,1092.80"/>
        <lane id=":node_445_start_0_1" index="1" speed="13.89" length="0.10" width="3.66" shape="7992.44,1096.46 7992.44,1096.46"/>
    </edge>
    <edge id=":node_446_start_0" function="internal">
        <lane id=":node_446_start_0_0" index="0" speed="13.89" length="0.10" width="3.66" shape="7524.56,1090.48 7524.56,1090.48"/>
        <lane id=":node_446_start_0_1" index="1" speed="13.89" length="0.10" width="3.66" shape="7524.55,1094.14 7524.55,1094.14"/>
    </edge>
    <edge id=":node_449_end_0" function="internal">
        <lane id=":node_449_end_0_0" index="0" speed="13.89" length="0.30" width="3.66" shape="6234.65,1084.13 6234.95,1084.13"/>
        <lane id=":node_449_end_0_1" index="1" speed="13.89" length="0.30" width="3.66" shape="6234.64,1087.79 6234.94,1087.79"/>
    </edge>

    <edge id="414.0" from="node_414_start" to="node_414_end" priority="-1" type="town" shape="1066.98,500.36 1112.55,519.29 1156.41,537.52 1205.24,557.72 1269.84,584.77 1311.72,602.32">
        <lane id="414.0_0" index="0" disallow="all" speed="13.89" length="263.50" width="3.66" shape="1071.88,492.49 1116.06,510.84 1159.92,529.07 1208.76,549.27 1273.38,576.33 1315.12,593.83" type="shoulder"/>
        <lane id="414.0_1" index="1" speed="13.89" length="263.50" width="3.66" shape="1070.47,495.87 1114.66,514.22 1158.52,532.45 1207.35,552.65 1271.96,579.71 1313.71,597.20"/>
        <lane id="414.0_2" index="2" speed="13.89" length="263.50" width="3.66" shape="1069.07,499.25 1113.26,517.60 1157.11,535.83 1205.95,556.03 1270.55,583.08 1312.29,600.58"/>
    </edge>
    <edge id="415.0" from="junction_84" to="node_414_start" priority="-1" type="town" shape="984.36,465.88 1002.67,473.56 1030.79,485.25 1054.90,495.35 1066.98,500.36">
        <lane id="415.0_0" index="0" speed="13.89" length="83.99" width="3.66" shape="990.20,462.37 1004.79,468.49 1032.91,480.18 1057.02,490.29 1067.70,494.72"/>
        <lane id="415.0_1" index="1" speed="13.89" length="83.99" width="3.66" shape="988.78,465.75 1003.38,471.87 1031.50,483.56 1055.61,493.66 1066.30,498.10"/>
    </edge>
    <edge id="416.0" from="node_416_start" to="junction_28" priority="-1" type="town" shape="1742.34,781.75 1782.17,798.31 1822.27,815.03 1851.21,827.08 1887.56,842.22">
        <lane id="416.0_0" index="0" speed="13.89" length="155.81" width="3.66" shape="1745.83,777.26 1784.28,793.24 1824.38,809.96 1853.32,822.01 1889.67,837.15"/>
        <lane id="416.0_1" index="1" speed="13.89" length="155.81" width="3.66" shape="1744.43,780.64 1782.88,796.62 1822.98,813.34 1851.92,825.39 1888.27,840.53"/>
    </edge>
    <edge id="417.0" from="junction_28" to="node_417_end" priority="-1" type="town" shape="1969.33,876.26 1988.26,884.16 1997.98,888.25 2011.47,893.85 2023.09,898.71 2036.63,904.35 2048.41,909.25 2059.41,913.80 2075.19,920.38 2096.29,929.23 2112.37,935.96 2122.73,940.24 2135.73,945.61 2143.82,948.88 2161.50,955.84 2174.28,960.81 2187.14,965.57 2198.73,969.83 2215.97,975.93 2234.88,982.41 2253.99,988.73 2268.33,993.22 2281.41,997.31 2293.32,1000.91 2303.64,1004.00 2316.90,1007.87 2327.90,1010.97 2343.01,1015.06 2355.10,1018.21 2370.81,1022.13 2383.92,1025.29 2401.79,1029.46 2421.92,1033.94 2447.12,1039.18 2469.01,1043.48 2487.87,1047.04 2504.78,1049.97 2527.38,1053.57 2551.09,1057.01 2566.44,1059.11 2582.71,1061.15 2594.15,1062.54 2606.46,1063.86 2625.62,1065.75 2643.69,1067.32 2662.38,1068.77 2687.39,1070.33 2711.44,1071.63 2734.91,1072.57 2776.62,1073.47 2805.01,1073.67 2842.65,1073.90 2866.38,1073.99 2913.10,1074.27 2948.20,1074.46 2986.41,1074.65 2990.95,1074.65">
        <lane id="417.0_0" index="0" disallow="all" speed="13.89" length="1049.72" width="3.66" shape="1972.86,867.82 1991.80,875.72 2001.51,879.81 2014.99,885.41 2026.62,890.27 2040.15,895.90 2051.92,900.80 2062.92,905.35 2078.72,911.94 2099.83,920.79 2115.89,927.51 2126.23,931.78 2139.20,937.14 2147.21,940.38 2164.84,947.32 2177.53,952.26 2190.31,956.99 2201.84,961.22 2218.98,967.29 2237.80,973.74 2256.80,980.02 2271.07,984.49 2284.10,988.57 2295.96,992.15 2306.23,995.23 2319.43,999.08 2330.34,1002.15 2345.36,1006.22 2357.36,1009.35 2372.99,1013.24 2386.03,1016.39 2403.83,1020.54 2423.85,1025.00 2448.94,1030.21 2470.74,1034.50 2489.50,1038.04 2506.28,1040.95 2528.76,1044.53 2552.37,1047.95 2567.63,1050.04 2583.84,1052.07 2595.19,1053.45 2607.40,1054.76 2626.47,1056.64 2644.44,1058.20 2663.02,1059.64 2687.92,1061.20 2711.87,1062.49 2735.19,1063.43 2776.75,1064.32 2805.07,1064.52 2842.70,1064.75 2866.43,1064.84 2913.16,1065.12 2948.25,1065.31 2986.45,1065.50 2990.82,1065.50" type="shoulder"/>
        <lane id="417.0_1" index="1" speed="13.89" length="1049.72" width="3.66" shape="1971.45,871.20 1990.38,879.10 2000.10,883.19 2013.58,888.78 2025.21,893.65 2038.74,899.28 2050.52,904.18 2061.52,908.73 2077.31,915.32 2098.41,924.17 2114.48,930.89 2124.83,935.17 2137.81,940.53 2145.86,943.78 2163.50,950.73 2176.23,955.68 2189.04,960.42 2200.60,964.67 2217.78,970.75 2236.63,977.21 2255.68,983.51 2269.97,987.98 2283.03,992.06 2294.90,995.65 2305.20,998.74 2318.42,1002.59 2329.36,1005.68 2344.42,1009.76 2356.46,1012.89 2372.12,1016.80 2385.19,1019.95 2403.01,1024.11 2423.08,1028.57 2448.21,1033.80 2470.05,1038.09 2488.85,1041.64 2505.68,1044.56 2528.21,1048.14 2551.86,1051.58 2567.16,1053.67 2583.39,1055.70 2594.78,1057.09 2607.03,1058.40 2626.13,1060.28 2644.14,1061.85 2662.77,1063.29 2687.71,1064.85 2711.70,1066.15 2735.08,1067.08 2776.70,1067.98 2805.05,1068.18 2842.68,1068.41 2866.41,1068.50 2913.13,1068.78 2948.23,1068.97 2986.44,1069.16 2990.82,1069.16"/>
        <lane id="417.0_2" index="2" speed="13.89" length="1049.72" width="3.66" shape="1970.04,874.57 1988.97,882.47 1998.69,886.56 2012.18,892.16 2023.80,897.02 2037.34,902.66 2049.11,907.56 2060.12,912.11 2075.90,918.69 2097.00,927.54 2113.08,934.27 2123.43,938.55 2136.43,943.92 2144.50,947.18 2162.17,954.14 2174.93,959.10 2187.78,963.85 2199.35,968.11 2216.57,974.20 2235.47,980.68 2254.55,986.99 2268.88,991.48 2281.95,995.56 2293.85,999.16 2304.16,1002.25 2317.41,1006.11 2328.39,1009.21 2343.48,1013.29 2355.56,1016.44 2371.25,1020.35 2384.35,1023.51 2402.20,1027.68 2422.31,1032.15 2447.49,1037.39 2469.36,1041.68 2488.20,1045.24 2505.08,1048.17 2527.66,1051.76 2551.35,1055.20 2566.68,1057.30 2582.94,1059.34 2594.36,1060.72 2606.65,1062.04 2625.79,1063.93 2643.84,1065.50 2662.51,1066.95 2687.50,1068.50 2711.53,1069.80 2734.97,1070.74 2776.65,1071.64 2805.02,1071.84 2842.66,1072.07 2866.39,1072.16 2913.11,1072.44 2948.21,1072.63 2986.42,1072.82 2990.82,1072.82"/>
    </edge>
    <edge id="418.0" from="junction_84" to="node_418_end" priority="-1" type="town" shape="987.41,459.20 993.19,461.00 998.56,462.73 1004.70,464.68 1015.72,468.11 1028.88,472.19 1042.70,476.50 1053.83,479.98 1072.30,485.70 1113.55,498.46 1142.30,507.48 1167.32,514.82 1180.35,518.54 1193.06,521.98 1204.55,524.70 1219.24,527.63 1233.78,530.00 1251.87,532.58 1255.09,532.97">
        <lane id="418.0_0" index="0" speed="13.89" length="273.95" width="3.66" shape="991.58,458.58 993.75,459.26 999.12,460.99 1005.25,462.94 1016.27,466.36 1029.43,470.44 1043.25,474.75 1054.38,478.23 1072.84,483.95 1114.10,496.71 1142.83,505.73 1167.83,513.06 1180.84,516.78 1193.51,520.21 1204.94,522.91 1219.57,525.83 1234.06,528.19 1252.13,530.77 1255.31,531.16"/>
    </edge>
    <edge id="419.0" from="node_419_start" to="node_419_end" priority="-1" type="town" shape="3053.07,1075.07 3077.76,1075.22 3109.45,1075.35 3141.72,1075.45 3187.30,1075.76 3214.04,1075.91 3231.25,1075.97 3285.50,1076.27 3324.91,1076.39">
        <lane id="419.0_0" index="0" disallow="all" speed="13.89" length="271.52" width="3.66" shape="3053.28,1065.92 3077.81,1066.07 3109.49,1066.20 3141.77,1066.30 3187.36,1066.61 3214.09,1066.76 3231.29,1066.82 3285.54,1067.12 3324.79,1067.24" type="shoulder"/>
        <lane id="419.0_1" index="1" speed="13.89" length="271.52" width="3.66" shape="3053.25,1069.58 3077.79,1069.73 3109.47,1069.86 3141.75,1069.96 3187.34,1070.27 3214.07,1070.42 3231.28,1070.48 3285.53,1070.78 3324.77,1070.90"/>
        <lane id="419.0_2" index="2" speed="13.89" length="271.52" width="3.66" shape="3053.23,1073.24 3077.77,1073.39 3109.46,1073.52 3141.73,1073.62 3187.31,1073.93 3214.05,1074.08 3231.26,1074.14 3285.51,1074.44 3324.76,1074.56"/>
    </edge>
    <edge id="421.0" from="node_421_start" to="node_421_end" priority="-1" type="town" shape="1361.56,623.25 1400.19,639.42 1455.42,662.48 1492.03,677.69">
        <lane id="421.0_0" index="0" disallow="all" speed="13.89" length="141.06" width="3.66" shape="1365.24,614.87 1403.72,630.98 1458.94,654.04 1495.41,669.19" type="shoulder"/>
        <lane id="421.0_1" index="1" speed="13.89" length="141.06" width="3.66" shape="1363.82,618.25 1402.31,634.36 1457.53,657.41 1494.00,672.57"/>
        <lane id="421.0_2" index="2" speed="13.89" length="141.06" width="3.66" shape="1362.41,621.62 1400.90,637.73 1456.13,660.79 1492.60,675.95"/>
    </edge>
    <edge id="422.0" from="node_422_start" to="node_422_end" priority="-1" type="town" shape="3549.88,1077.07 3582.62,1077.28 3641.10,1077.48 3696.92,1077.67 3782.32,1078.14 3857.72,1078.50 3920.88,1078.81 3983.48,1079.12 4021.68,1079.29 4062.05,1079.56 4097.85,1079.84 4132.48,1080.07 4176.99,1080.34 4220.05,1080.50 4237.64,1080.60 4273.95,1080.74 4297.87,1080.87 4321.88,1080.99 4357.56,1081.15 4381.21,1081.29 4416.87,1081.43 4452.69,1081.60 4489.01,1081.76 4513.66,1081.94 4536.90,1082.07 4560.21,1082.13 4597.33,1082.25 4620.84,1082.31 4644.85,1082.42 4668.73,1082.58 4692.45,1082.71 4716.19,1082.76 4740.49,1082.85 4764.36,1082.99 4800.89,1083.16 4824.32,1083.28 4860.87,1083.49 4908.61,1083.69 4980.90,1084.04 5040.89,1084.27 5089.03,1084.45 5161.25,1084.77 5208.33,1085.07 5256.59,1085.29 5316.99,1085.59 5364.23,1085.81 5399.99,1086.00 5436.23,1086.21 5473.43,1086.39 5509.24,1086.51 5556.89,1086.66 5605.81,1086.73 5654.98,1086.84 5727.35,1087.09 5787.58,1087.36 5836.58,1087.61 5884.51,1087.82 5921.16,1088.02 5981.38,1088.33 6029.72,1088.62 6066.04,1088.85 6089.14,1088.97">
        <lane id="422.0_0" index="0" disallow="all" speed="13.89" length="2539.14" width="3.66" shape="3550.09,1067.92 3582.67,1068.13 3641.13,1068.33 3696.96,1068.52 3782.37,1068.99 3857.77,1069.35 3920.93,1069.66 3983.53,1069.97 4021.73,1070.14 4062.12,1070.41 4097.92,1070.69 4132.54,1070.92 4177.04,1071.19 4220.09,1071.35 4237.68,1071.45 4273.99,1071.59 4297.92,1071.72 4321.93,1071.84 4357.61,1072.00 4381.26,1072.14 4416.91,1072.28 4452.73,1072.45 4489.06,1072.61 4513.72,1072.79 4536.94,1072.92 4560.24,1072.98 4597.36,1073.10 4620.88,1073.16 4644.90,1073.27 4668.79,1073.43 4692.49,1073.56 4716.22,1073.61 4740.54,1073.70 4764.41,1073.84 4800.94,1074.01 4824.37,1074.13 4860.92,1074.34 4908.65,1074.54 4980.94,1074.89 5040.93,1075.12 5089.07,1075.30 5161.30,1075.62 5208.38,1075.92 5256.64,1076.14 5317.04,1076.44 5364.28,1076.66 5400.04,1076.85 5436.28,1077.06 5473.47,1077.24 5509.27,1077.36 5556.91,1077.51 5605.83,1077.58 5655.01,1077.69 5727.39,1077.94 5787.63,1078.21 5836.63,1078.46 5884.56,1078.67 5921.21,1078.87 5981.43,1079.18 6029.78,1079.47 6066.10,1079.70 6089.19,1079.82" type="shoulder"/>
        <lane id="422.0_1" index="1" speed="13.89" length="2539.14" width="3.66" shape="3550.06,1071.58 3582.65,1071.79 3641.12,1071.99 3696.95,1072.18 3782.35,1072.65 3857.75,1073.01 3920.91,1073.32 3983.51,1073.63 4021.71,1073.80 4062.09,1074.07 4097.89,1074.35 4132.52,1074.58 4177.02,1074.85 4220.08,1075.01 4237.67,1075.11 4273.98,1075.25 4297.90,1075.38 4321.91,1075.50 4357.59,1075.66 4381.24,1075.80 4416.90,1075.94 4452.72,1076.11 4489.04,1076.27 4513.70,1076.45 4536.93,1076.58 4560.23,1076.64 4597.35,1076.76 4620.86,1076.82 4644.88,1076.93 4668.77,1077.09 4692.47,1077.22 4716.21,1077.27 4740.52,1077.36 4764.39,1077.50 4800.92,1077.67 4824.35,1077.79 4860.90,1078.00 4908.64,1078.20 4980.93,1078.55 5040.91,1078.78 5089.06,1078.96 5161.28,1079.28 5208.36,1079.58 5256.62,1079.80 5317.02,1080.10 5364.26,1080.32 5400.02,1080.51 5436.26,1080.72 5473.46,1080.90 5509.26,1081.02 5556.91,1081.17 5605.82,1081.24 5655.00,1081.35 5727.37,1081.60 5787.61,1081.87 5836.61,1082.12 5884.54,1082.33 5921.19,1082.53 5981.41,1082.84 6029.76,1083.13 6066.08,1083.36 6089.17,1083.48"/>
        <lane id="422.0_2" index="2" speed="13.89" length="2539.14" width="3.66" shape="3550.04,1075.24 3582.63,1075.45 3641.11,1075.65 3696.93,1075.84 3782.33,1076.31 3857.73,1076.67 3920.89,1076.98 3983.49,1077.29 4021.69,1077.46 4062.07,1077.73 4097.87,1078.01 4132.49,1078.24 4177.00,1078.51 4220.06,1078.67 4237.65,1078.77 4273.96,1078.91 4297.88,1079.04 4321.89,1079.16 4357.57,1079.32 4381.22,1079.46 4416.88,1079.60 4452.70,1079.77 4489.02,1079.93 4513.67,1080.11 4536.91,1080.24 4560.22,1080.30 4597.34,1080.42 4620.85,1080.48 4644.86,1080.59 4668.74,1080.75 4692.46,1080.88 4716.20,1080.93 4740.50,1081.02 4764.37,1081.16 4800.90,1081.33 4824.33,1081.45 4860.88,1081.66 4908.62,1081.86 4980.91,1082.21 5040.90,1082.44 5089.04,1082.62 5161.26,1082.94 5208.34,1083.24 5256.60,1083.46 5317.00,1083.76 5364.24,1083.98 5400.00,1084.17 5436.24,1084.38 5473.44,1084.56 5509.25,1084.68 5556.90,1084.83 5605.82,1084.90 5654.99,1085.01 5727.36,1085.26 5787.59,1085.53 5836.59,1085.78 5884.52,1085.99 5921.17,1086.19 5981.39,1086.50 6029.73,1086.79 6066.05,1087.02 6089.15,1087.14"/>
    </edge>
    <edge id="423.0" from="node_419_end" to="node_423_end" priority="-1" type="town" shape="3324.91,1076.39 3350.03,1076.39 3395.96,1076.61 3418.54,1076.68">
        <lane id="423.0_0" index="0" disallow="all" speed="13.89" length="93.34" width="3.66" shape="3325.07,1067.24 3350.05,1067.24 3396.00,1067.46 3418.42,1067.53" type="shoulder"/>
        <lane id="423.0_1" index="1" speed="13.89" length="93.34" width="3.66" shape="3325.07,1070.90 3350.05,1070.90 3395.99,1071.12 3418.41,1071.19"/>
        <lane id="423.0_2" index="2" speed="13.89" length="93.34" width="3.66" shape="3325.07,1074.56 3350.04,1074.56 3395.97,1074.78 3418.40,1074.85"/>
    </edge>
    <edge id="426.0" from="node_417_end" to="node_419_start" priority="-1" type="town" shape="2990.95,1074.65 3008.12,1074.79 3036.13,1074.99 3053.07,1075.07">
        <lane id="426.0_0" index="0" disallow="all" speed="13.89" length="61.82" width="3.66" shape="2991.16,1065.50 3008.19,1065.64 3036.19,1065.84 3052.97,1065.92" type="shoulder"/>
        <lane id="426.0_1" index="1" speed="13.89" length="61.82" width="3.66" shape="2991.13,1069.16 3008.16,1069.30 3036.17,1069.50 3052.95,1069.58"/>
        <lane id="426.0_2" index="2" speed="13.89" length="61.82" width="3.66" shape="2991.10,1072.82 3008.14,1072.96 3036.14,1073.16 3052.93,1073.24"/>
    </edge>
    <edge id="427.0" from="node_427_start" to="node_422_start" priority="-1" type="town" shape="3477.21,1076.86 3523.48,1076.99 3549.88,1077.07">
        <lane id="427.0_0" index="0" disallow="all" speed="13.89" length="72.38" width="3.66" shape="3477.39,1067.71 3523.51,1067.84 3549.77,1067.92" type="shoulder"/>
        <lane id="427.0_1" index="1" speed="13.89" length="72.38" width="3.66" shape="3477.38,1071.37 3523.50,1071.50 3549.76,1071.58"/>
        <lane id="427.0_2" index="2" speed="13.89" length="72.38" width="3.66" shape="3477.37,1075.03 3523.49,1075.16 3549.74,1075.24"/>
    </edge>
    <edge id="428.0" from="node_428_start" to="junction_84" priority="-1" type="town" shape="0.00,0.00 39.52,22.66 70.64,40.37 98.46,56.25 122.10,69.73 145.51,83.13 180.27,102.87 197.19,112.48 215.71,122.93 225.06,128.12 239.04,135.88 252.12,142.97 263.14,148.96 275.09,155.36 291.54,163.99 313.70,175.35 338.65,188.00 357.41,197.24 377.26,206.94 407.62,221.45 435.09,234.22 466.16,248.39 488.98,258.66 500.46,263.68 512.55,268.91 528.81,275.82 542.77,281.77 570.32,293.31 607.23,308.73 633.33,319.58 657.56,329.70 702.73,348.39 788.04,383.98 872.05,418.89 915.31,437.00">
        <lane id="428.0_0" index="0" disallow="all" speed="13.89" length="1014.97" width="3.66" shape="4.55,-7.94 44.06,14.72 75.17,32.42 103.00,48.30 126.64,61.79 150.04,75.18 184.79,94.92 201.70,104.52 220.19,114.95 229.50,120.12 243.44,127.86 256.49,134.93 267.49,140.91 279.38,147.28 295.76,155.87 317.86,167.20 342.74,179.82 361.44,189.03 381.24,198.70 411.52,213.17 438.92,225.91 469.94,240.06 492.69,250.30 504.11,255.29 516.16,260.50 532.40,267.40 546.33,273.34 573.85,284.87 610.75,300.29 636.85,311.14 661.08,321.25 706.24,339.94 791.56,375.53 875.58,410.45 918.85,428.56" type="shoulder"/>
        <lane id="428.0_1" index="1" speed="13.89" length="1014.97" width="3.66" shape="2.73,-4.76 42.25,17.89 73.36,35.60 101.18,51.48 124.83,64.96 148.23,78.36 182.98,98.10 199.90,107.70 218.40,118.14 227.73,123.32 241.68,131.07 254.74,138.15 265.75,144.13 277.66,150.51 294.07,159.12 316.20,170.46 341.11,183.09 359.83,192.31 379.65,202.00 409.96,216.49 437.39,229.23 468.43,243.39 491.21,253.64 502.65,258.65 514.72,263.87 530.96,270.77 544.91,276.71 572.44,288.25 609.35,303.66 635.44,314.51 659.67,324.63 704.84,343.32 790.15,378.91 874.17,413.82 917.43,431.94"/>
        <lane id="428.0_2" index="2" speed="13.89" length="1014.97" width="3.66" shape="0.91,-1.59 40.43,21.07 71.55,38.78 99.37,54.66 123.01,68.14 146.42,81.54 181.18,101.28 198.09,110.89 216.61,121.34 225.95,126.52 239.92,134.28 253.00,141.36 264.01,147.35 275.95,153.74 292.39,162.37 314.53,173.72 339.47,186.36 358.22,195.60 378.06,205.29 408.40,219.80 435.86,232.56 466.92,246.72 489.72,256.99 501.19,262.00 513.27,267.23 529.53,274.14 543.49,280.09 571.03,291.62 607.94,307.04 634.04,317.89 658.27,328.01 703.43,346.70 788.75,382.29 872.76,417.20 916.02,435.31"/>
    </edge>
    <edge id="429.0" from="node_421_end" to="node_416_start" priority="-1" type="town" shape="1492.03,677.69 1569.71,710.10 1657.57,746.60 1742.34,781.75">
        <lane id="429.0_0" index="0" disallow="all" speed="13.89" length="269.42" width="3.66" shape="1495.69,669.30 1573.23,701.65 1661.08,738.15 1744.46,772.73" type="shoulder"/>
        <lane id="429.0_1" index="1" speed="13.89" length="269.42" width="3.66" shape="1494.28,672.68 1571.82,705.03 1659.68,741.53 1743.06,776.11"/>
        <lane id="429.0_2" index="2" speed="13.89" length="269.42" width="3.66" shape="1492.87,676.06 1570.42,708.41 1658.27,744.91 1741.66,779.49"/>
    </edge>
    <edge id="430.0" from="node_414_end" to="node_421_start" priority="-1" type="town" shape="1311.72,602.32 1341.22,614.70 1361.56,623.25">
        <lane id="430.0_0" index="0" disallow="all" speed="13.89" length="53.76" width="3.66" shape="1315.40,593.94 1344.77,606.27 1364.97,614.76" type="shoulder"/>
        <lane id="430.0_1" index="1" speed="13.89" length="53.76" width="3.66" shape="1313.98,597.32 1343.35,609.64 1363.55,618.13"/>
        <lane id="430.0_2" index="2" speed="13.89" length="53.76" width="3.66" shape="1312.57,600.69 1341.93,613.01 1362.13,621.51"/>
    </edge>
    <edge id="435.0" from="node_423_end" to="node_427_start" priority="-1" type="town" shape="3418.54,1076.68 3441.87,1076.73 3477.21,1076.86">
        <lane id="435.0_0" index="0" disallow="all" speed="13.89" length="58.38" width="3.66" shape="3418.71,1067.53 3441.90,1067.58 3477.09,1067.71" type="shoulder"/>
        <lane id="435.0_1" index="1" speed="13.89" length="58.38" width="3.66" shape="3418.71,1071.19 3441.89,1071.24 3477.08,1071.37"/>
        <lane id="435.0_2" index="2" speed="13.89" length="58.38" width="3.66" shape="3418.70,1074.85 3441.88,1074.90 3477.07,1075.03"/>
    </edge>
    <edge id="436.0" from="node_436_start" to="junction_28" priority="-1" type="town" shape="1649.66,703.44 1700.74,737.68 1716.91,748.14 1732.57,757.91 1745.52,765.67 1749.21,767.76 1755.30,771.03 1765.88,776.42 1780.24,783.66 1797.01,791.92 1812.21,799.29 1839.57,812.37 1851.20,817.81 1862.79,823.15 1874.90,828.58 1890.50,835.59">
        <lane id="436.0_0" index="0" speed="13.89" length="274.73" width="3.66" shape="1650.68,701.92 1701.75,736.15 1717.89,746.60 1733.53,756.35 1746.44,764.09 1750.10,766.16 1756.15,769.41 1766.71,774.79 1781.06,782.02 1797.82,790.28 1813.01,797.64 1840.36,810.72 1851.97,816.15 1863.55,821.49 1875.65,826.91 1891.01,833.81"/>
    </edge>
    <edge id="438.0" from="node_422_end" to="node_438_end" priority="-1" type="town" shape="6089.14,1088.97 6114.62,1089.10 6147.55,1089.26">
        <lane id="438.0_0" index="0" disallow="all" speed="13.89" length="58.41" width="3.66" shape="6089.19,1079.82 6114.67,1079.95 6147.60,1080.11" type="shoulder"/>
        <lane id="438.0_1" index="1" speed="13.89" length="58.41" width="3.66" shape="6089.17,1083.48 6114.65,1083.61 6147.58,1083.77"/>