<?xml version='1.0' encoding='utf-8'?>
<edges>
    <edge id="414.0" from="node_414_start" to="node_414_end" numLanes="3" speed="13.89" type="town" shape="668702.57,3285426.95 668748.14,3285445.88 668748.14,3285445.88 668792.00,3285464.11 668792.00,3285464.11 668840.83,3285484.31 668840.83,3285484.31 668905.43,3285511.36 668905.43,3285511.36 668947.31,3285528.91">
        <lane index="0" width="3.66" type="shoulder" disallow="all" />
        <lane index="1" width="3.66" />
        <lane index="2" width="3.66" />
    </edge>
    <edge id="415.0" from="junction_84" to="node_414_start" numLanes="2" speed="13.89" type="town" shape="668619.95,3285392.47 668638.26,3285400.15 668638.26,3285400.15 668666.38,3285411.84 668666.38,3285411.84 668690.49,3285421.94 668690.49,3285421.94 668702.57,3285426.95">
        <lane index="0" width="3.66" />
        <lane index="1" width="3.66" />
    </edge>
    <edge id="416.0" from="node_416_start" to="junction_28" numLanes="2" speed="13.89" type="town" shape="669377.93,3285708.34 669417.76,3285724.90 669417.76,3285724.90 669457.86,3285741.62 669457.86,3285741.62 669486.80,3285753.67 669486.80,3285753.67 669523.15,3285768.81">
        <lane index="0" width="3.66" />
        <lane index="1" width="3.66" />
    </edge>
    <edge id="417.0" from="junction_28" to="node_417_end" numLanes="3" speed="13.89" type="town" shape="669604.92,3285802.85 669623.85,3285810.75 669623.85,3285810.75 669633.57,3285814.84 669633.57,3285814.84 669647.06,3285820.44 669647.06,3285820.44 669658.68,3285825.30 669658.68,3285825.30 669672.22,3285830.94 669672.22,3285830.94 669684.00,3285835.84 669684.00,3285835.84 669695.00,3285840.39 669695.00,3285840.39 669710.78,3285846.97 669710.78,3285846.97 669731.88,3285855.82 669731.88,3285855.82 669747.96,3285862.55 669747.96,3285862.55 669758.32,3285866.83 669758.32,3285866.83 669771.32,3285872.20 669771.32,3285872.20 669779.41,3285875.47 669779.41,3285875.47 669797.09,3285882.43 669797.09,3285882.43 669809.87,3285887.40 669809.87,3285887.40 669822.73,3285892.16 669822.73,3285892.16 669834.32,3285896.42 669834.32,3285896.42 669851.56,3285902.52 669851.56,3285902.52 669870.47,3285909.00 669870.47,3285909.00 669889.58,3285915.32 669889.58,3285915.32 669903.92,3285919.81 669903.92,3285919.81 669917.00,3285923.90 669917.00,3285923.90 669928.91,3285927.50 669928.91,3285927.50 669939.23,3285930.59 669939.23,3285930.59 669952.49,3285934.46 669952.49,3285934.46 669963.49,3285937.56 669963.49,3285937.56 669978.60,3285941.65 669978.60,3285941.65 669990.69,3285944.80 669990.69,3285944.80 670006.40,3285948.72 670006.40,3285948.72 670019.51,3285951.88 670019.51,3285951.88 670037.38,3285956.05 670037.38,3285956.05 670057.51,3285960.53 670057.51,3285960.53 670082.71,3285965.77 670082.71,3285965.77 670104.60,3285970.07 670104.60,3285970.07 670123.46,3285973.63 670123.46,3285973.63 670140.37,3285976.56 670140.37,3285976.56 670162.97,3285980.16 670162.97,3285980.16 670186.68,3285983.60 670186.68,3285983.60 670202.03,3285985.70 670202.03,3285985.70 670218.30,3285987.74 670218.30,3285987.74 670229.74,3285989.13 670229.74,3285989.13 670242.05,3285990.45 670242.05,3285990.45 670261.21,3285992.34 670261.21,3285992.34 670279.28,3285993.91 670279.28,3285993.91 670297.97,3285995.36 670297.97,3285995.36 670322.98,3285996.92 670322.98,3285996.92 670347.03,3285998.22 670347.03,3285998.22 670370.50,3285999.16 670370.50,3285999.16 670412.21,3286000.06 670412.21,3286000.06 670440.60,3286000.26 670440.60,3286000.26 670478.24,3286000.49 670478.24,3286000.49 670501.97,3286000.58 670501.97,3286000.58 670548.69,3286000.86 670548.69,3286000.86 670583.79,3286001.05 670583.79,3286001.05 670622.00,3286001.24 670622.00,3286001.24 670626.54,3286001.24">
        <lane index="0" width="3.66" type="shoulder" disallow="all" />
        <lane index="1" width="3.66" />
        <lane index="2" width="3.66" />
    </edge>
    <edge id="418.0" from="junction_84" to="node_418_end" numLanes="1" speed="13.89" type="town" shape="668623.00,3285385.79 668628.78,3285387.59 668628.78,3285387.59 668634.15,3285389.32 668634.15,3285389.32 668640.29,3285391.27 668640.29,3285391.27 668651.31,3285394.70 668651.31,3285394.70 668664.47,3285398.78 668664.47,3285398.78 668678.29,3285403.09 668678.29,3285403.09 668689.42,3285406.57 668689.42,3285406.57 668707.89,3285412.29 668707.89,3285412.29 668749.14,3285425.05 668749.14,3285425.05 668777.89,3285434.07 668777.89,3285434.07 668802.91,3285441.41 668802.91,3285441.41 668815.94,3285445.13 668815.94,3285445.13 668828.65,3285448.57 668828.65,3285448.57 668840.14,3285451.29 668840.14,3285451.29 668854.83,3285454.22 668854.83,3285454.22 668869.37,3285456.59 668869.37,3285456.59 668887.46,3285459.17 668887.46,3285459.17 668890.68,3285459.56">
        <lane index="0" width="3.66" />
    </edge>
    <edge id="419.0" from="node_419_start" to="node_419_end" numLanes="3" speed="13.89" type="town" shape="670688.66,3286001.66 670713.35,3286001.81 670713.35,3286001.81 670745.04,3286001.94 670745.04,3286001.94 670777.31,3286002.04 670777.31,3286002.04 670822.89,3286002.35 670822.89,3286002.35 670849.63,3286002.50 670849.63,3286002.50 670866.84,3286002.56 670866.84,3286002.56 670921.09,3286002.86 670921.09,3286002.86 670960.50,3286002.98">
        <lane index="0" width="3.66" type="shoulder" disallow="all" />
        <lane index="1" width="3.66" />
        <lane index="2" width="3.66" />
    </edge>
    <edge id="421.0" from="node_421_start" to="node_421_end" numLanes="3" speed="13.89" type="town" shape="668997.15,3285549.84 669035.78,3285566.01 669035.78,3285566.01 669091.01,3285589.07 669091.01,3285589.07 669127.62,3285604.28">
        <lane index="0" width="3.66" type="shoulder" disallow="all" />
        <lane index="1" width="3.66" />
        <lane index="2" width="3.66" />
    </edge>
    <edge id="422.0" from="node_422_start" to="node_422_end" numLanes="3" speed="13.89" type="town" shape="671185.47,3286003.66 671218.21,3286003.87 671218.21,3286003.87 671276.69,3286004.07 671276.69,3286004.07 671332.51,3286004.26 671332.51,3286004.26 671417.91,3286004.73 671417.91,3286004.73 671493.31,3286005.09 671493.31,3286005.09 671556.47,3286005.40 671556.47,3286005.40 671619.07,3286005.71 671619.07,3286005.71 671657.27,3286005.88 671657.27,3286005.88 671697.64,3286006.15 671697.64,3286006.15 671733.44,3286006.43 671733.44,3286006.43 671768.07,3286006.66 671768.07,3286006.66 671812.58,3286006.93 671812.58,3286006.93 671855.64,3286007.09 671855.64,3286007.09 671873.23,3286007.19 671873.23,3286007.19 671909.54,3286007.33 671909.54,3286007.33 671933.46,3286007.46 671933.46,3286007.46 671957.47,3286007.58 671957.47,3286007.58 671993.15,3286007.74 671993.15,3286007.74 672016.80,3286007.88 672016.80,3286007.88 672052.46,3286008.02 672052.46,3286008.02 672088.28,3286008.19 672088.28,3286008.19 672124.60,3286008.35 672124.60,3286008.35 672149.25,3286008.53 672149.25,3286008.53 672172.49,3286008.66 672172.49,3286008.66 672195.80,3286008.72 672195.80,3286008.72 672232.92,3286008.84 672232.92,3286008.84 672256.43,3286008.90 672256.43,3286008.90 672280.44,3286009.01 672280.44,3286009.01 672304.32,3286009.17 672304.32,3286009.17 672328.04,3286009.30 672328.04,3286009.30 672351.78,3286009.35 672351.78,3286009.35 672376.08,3286009.44 672376.08,3286009.44 672399.95,3286009.58 672399.95,3286009.58 672436.48,3286009.75 672436.48,3286009.75 672459.91,3286009.87 672459.91,3286009.87 672496.46,3286010.08 672496.46,3286010.08 672544.20,3286010.28 672544.20,3286010.28 672616.49,3286010.63 672616.49,3286010.63 672676.48,3286010.86 672676.48,3286010.86 672724.62,3286011.04 672724.62,3286011.04 672796.84,3286011.36 672796.84,3286011.36 672843.92,3286011.66 672843.92,3286011.66 672892.18,3286011.88 672892.18,3286011.88 672952.58,3286012.18 672952.58,3286012.18 672999.82,3286012.40 672999.82,3286012.40 673035.58,3286012.59 673035.58,3286012.59 673071.82,3286012.80 673071.82,3286012.80 673109.02,3286012.98 673109.02,3286012.98 673144.83,3286013.10 673144.83,3286013.10 673192.48,3286013.25 673192.48,3286013.25 673241.40,3286013.32 673241.40,3286013.32 673290.57,3286013.43 673290.57,3286013.43 673362.94,3286013.68 673362.94,3286013.68 673423.17,3286013.95 673423.17,3286013.95 673472.17,3286014.20 673472.17,3286014.20 673520.10,3286014.41 673520.10,3286014.41 673556.75,3286014.61 673556.75,3286014.61 673616.97,3286014.92 673616.97,3286014.92 673665.31,3286015.21 673665.31,3286015.21 673701.63,3286015.44 673701.63,3286015.44 673724.73,3286015.56">
        <lane index="0" width="3.66" type="shoulder" disallow="all" />
        <lane index="1" width="3.66" />
        <lane index="2" width="3.66" />
    </edge>
    <edge id="423.0" from="node_419_end" to="node_423_end" numLanes="3" speed="13.89" type="town" shape="670960.50,3286002.98 670985.62,3286002.98 670985.62,3286002.98 671031.55,3286003.20 671031.55,3286003.20 671054.13,3286003.27">
        <lane index="0" width="3.66" type="shoulder" disallow="all" />
        <lane index="1" width="3.66" />
        <lane index="2" width="3.66" />
    </edge>
    <edge id="426.0" from="node_417_end" to="node_419_start" numLanes="3" speed="13.89" type="town" shape="670626.54,3286001.24 670643.71,3286001.38 670643.71,3286001.38 670671.72,3286001.58 670671.72,3286001.58 670688.66,3286001.66">
        <lane index="0" width="3.66" type="shoulder" disallow="all" />
        <lane index="1" width="3.66" />
        <lane index="2" width="3.66" />
    </edge>
    <edge id="427.0" from="node_427_start" to="node_422_start" numLanes="3" speed="13.89" type="town" shape="671112.80,3286003.45 671159.07,3286003.58 671159.07,3286003.58 671185.47,3286003.66">
        <lane index="0" width="3.66" type="shoulder" disallow="all" />
        <lane index="1" width="3.66" />
        <lane index="2" width="3.66" />
    </edge>
    <edge id="428.0" from="node_428_start" to="junction_84" numLanes="3" speed="13.89" type="town" shape="667635.59,3284926.59 667675.11,3284949.25 667675.11,3284949.25 667706.23,3284966.96 667706.23,3284966.96 667734.05,3284982.84 667734.05,3284982.84 667757.69,3284996.32 667757.69,3284996.32 667781.10,3285009.72 667781.10,3285009.72 667815.86,3285029.46 667815.86,3285029.46 667832.78,3285039.07 667832.78,3285039.07 667851.30,3285049.52 667851.30,3285049.52 667860.65,3285054.71 667860.65,3285054.71 667874.63,3285062.47 667874.63,3285062.47 667887.71,3285069.56 667887.71,3285069.56 667898.73,3285075.55 667898.73,3285075.55 667910.68,3285081.95 667910.68,3285081.95 667927.13,3285090.58 667927.13,3285090.58 667949.29,3285101.94 667949.29,3285101.94 667974.24,3285114.59 667974.24,3285114.59 667993.00,3285123.83 667993.00,3285123.83 668012.85,3285133.53 668012.85,3285133.53 668043.21,3285148.04 668043.21,3285148.04 668070.68,3285160.81 668070.68,3285160.81 668101.75,3285174.98 668101.75,3285174.98 668124.57,3285185.25 668124.57,3285185.25 668136.05,3285190.27 668136.05,3285190.27 668148.14,3285195.50 668148.14,3285195.50 668164.40,3285202.41 668164.40,3285202.41 668178.36,3285208.36 668178.36,3285208.36 668205.91,3285219.90 668205.91,3285219.90 668242.82,3285235.32 668242.82,3285235.32 668268.92,3285246.17 668268.92,3285246.17 668293.15,3285256.29 668293.15,3285256.29 668338.32,3285274.98 668338.32,3285274.98 668423.63,3285310.57 668423.63,3285310.57 668507.64,3285345.48 668507.64,3285345.48 668550.90,3285363.59">
        <lane index="0" width="3.66" type="shoulder" disallow="all" />
        <lane index="1" width="3.66" />
        <lane index="2" width="3.66" />
    </edge>
    <edge id="429.0" from="node_421_end" to="node_416_start" numLanes="3" speed="13.89" type="town" shape="669127.62,3285604.28 669205.30,3285636.69 669205.30,3285636.69 669293.16,3285673.19 669293.16,3285673.19 669377.93,3285708.34">
        <lane index="0" width="3.66" type="shoulder" disallow="all" />
        <lane index="1" width="3.66" />
        <lane index="2" width="3.66" />
    </edge>
    <edge id="430.0" from="node_414_end" to="node_421_start" numLanes="3" speed="13.89" type="town" shape="668947.31,3285528.91 668976.81,3285541.29 668976.81,3285541.29 668997.15,3285549.84">
        <lane index="0" width="3.66" type="shoulder" disallow="all" />
        <lane index="1" width="3.66" />
        <lane index="2" width="3.66" />
    </edge>
    <edge id="435.0" from="node_423_end" to="node_427_start" numLanes="3" speed="13.89" type="town" shape="671054.13,3286003.27 671077.46,3286003.32 671077.46,3286003.32 671112.80,3286003.45">
        <lane index="0" width="3.66" type="shoulder" disallow="all" />
        <lane index="1" width="3.66" />
        <lane index="2" width="3.66" />
    </edge>
    <edge id="436.0" from="node_436_start" to="junction_28" numLanes="1" speed="13.89" type="town" shape="669285.25,3285630.03 669336.33,3285664.27 669336.33,3285664.27 669352.50,3285674.73 669352.50,3285674.73 669368.16,3285684.50 669368.16,3285684.50 669381.11,3285692.26 669381.11,3285692.26 669384.80,3285694.35 669384.80,3285694.35 669390.89,3285697.62 669390.89,3285697.62 669401.47,3285703.01 669401.47,3285703.01 669415.83,3285710.25 669415.83,3285710.25 669432.60,3285718.51 669432.60,3285718.51 669447.80,3285725.88 669447.80,3285725.88 669475.16,3285738.96 669475.16,3285738.96 669486.79,3285744.40 669486.79,3285744.40 669498.38,3285749.74 669498.38,3285749.74 669510.49,3285755.17 669510.49,3285755.17 669526.09,3285762.18">
        <lane index="0" width="3.66" />
    </edge>
    <edge id="438.0" from="node_422_end" to="node_438_end" numLanes="3" speed="13.89" type="town" shape="673724.73,3286015.56 673750.21,3286015.69 673750.21,3286015.69 673783.14,3286015.85">
        <lane index="0" width="3.66" type="shoulder" disallow="all" />
        <lane index="1" width="3.66" />
        <lane index="2" width="3.66" />
    </edge>
    <edge id="439.0" from="node_439_start" to="node_439_end" numLanes="3" speed="13.89" type="town" shape="675499.83,3286024.33 675504.95,3286024.35 675504.95,3286024.35 675550.86,3286024.56">
        <lane index="0" width="3.66" type="shoulder" disallow="all" />
        <lane index="1" width="3.66" />
        <lane index="2" width="3.66" />
    </edge>
    <edge id="440.0" from="node_440_start" to="node_440_end" numLanes="3" speed="13.89" type="town" shape="675211.82,3286022.83 675214.85,3286022.84 675214.85,3286022.84 675263.85,3286023.10">
        <lane index="0" width="3.66" type="shoulder" disallow="all" />
        <lane index="1" width="3.66" />
        <lane index="2" width="3.66" />
    </edge>
    <edge id="443.0" from="node_443_start" to="node_443_end" numLanes="3" speed="13.89" type="town" shape="676022.75,3286026.71 676047.26,3286026.81 676047.26,3286026.81 676107.20,3286027.02 676107.20,3286027.02 676155.58,3286027.25 676155.58,3286027.25 676203.39,3286027.50 676203.39,3286027.50 676252.19,3286027.71 676252.19,3286027.71 676301.07,3286028.03 676301.07,3286028.03 676396.72,3286028.43 676396.72,3286028.43 676493.02,3286028.91 676493.02,3286028.91 676638.52,3286029.66 676638.52,3286029.66 676747.01,3286030.18 676747.01,3286030.18 676807.51,3286030.48 676807.51,3286030.48 676896.22,3286030.93">
        <lane index="0" width="3.66" type="shoulder" disallow="all" />
        <lane index="1" width="3.66" />
        <lane index="2" width="3.66" />
    </edge>
    <edge id="445.0" from="node_445_start" to="junction_85" numLanes="3" speed="13.89" type="town" shape="675628.02,3286024.88 675638.95,3286024.92 675638.95,3286024.92 675710.65,3286025.20 675710.65,3286025.20 675781.28,3286025.58">
        <lane index="0" width="3.66" type="shoulder" disallow="all" />
        <lane index="1" width="3.66" />
        <lane index="2" width="3.66" />
    </edge>
    <edge id="446.0" from="node_446_start" to="node_440_start" numLanes="3" speed="13.89" type="town" shape="675160.13,3286022.56 675166.66,3286022.58 675166.66,3286022.58 675211.82,3286022.83">
        <lane index="0" width="3.66" type="shoulder" disallow="all" />
        <lane index="1" width="3.66" />
        <lane index="2" width="3.66" />
    </edge>
    <edge id="447.0" from="junction_85" to="node_443_start" numLanes="2" speed="13.89" type="town" shape="675885.75,3286026.07 675974.65,3286026.50 675974.65,3286026.50 676022.75,3286026.71">
        <lane index="0" width="3.66" />
        <lane index="1" width="3.66" />
    </edge>
    <edge id="448.0" from="node_440_end" to="node_439_start" numLanes="3" speed="13.89" type="town" shape="675263.85,3286023.10 675324.32,3286023.52 675324.32,3286023.52 675408.71,3286023.94 675408.71,3286023.94 675499.83,3286024.33">
        <lane index="0" width="3.66" type="shoulder" disallow="all" />
        <lane index="1" width="3.66" />
        <lane index="2" width="3.66" />
    </edge>
    <edge id="449.0" from="node_438_end" to="node_449_end" numLanes="3" speed="13.89" type="town" shape="673783.14,3286015.85 673810.78,3286015.98 673810.78,3286015.98 673858.80,3286016.18 673858.80,3286016.18 673870.37,3286016.21">
        <lane index="0" width="3.66" type="shoulder" disallow="all" />
        <lane index="1" width="3.66" />
        <lane index="2" width="3.66" />
    </edge>
    <edge id="450.0" from="node_449_end" to="node_446_start" numLanes="3" speed="13.89" type="town" shape="673870.37,3286016.21 673895.33,3286016.27 673895.33,3286016.27 673931.32,3286016.39 673931.32,3286016.39 673979.96,3286016.52 673979.96,3286016.52 674028.44,3286016.70 674028.44,3286016.70 674087.85,3286017.08 674087.85,3286017.08 674149.08,3286017.33 674149.08,3286017.33 674208.93,3286017.54 674208.93,3286017.54 674280.63,3286017.84 674280.63,3286017.84 674354.52,3286018.20 674354.52,3286018.20 674438.31,3286018.56 674438.31,3286018.56 674499.05,3286018.94 674499.05,3286018.94 674547.60,3286019.39 674547.60,3286019.39 674619.80,3286019.70 674619.80,3286019.70 674692.14,3286020.03 674692.14,3286020.03 674764.69,3286020.50 674764.69,3286020.50 674826.12,3286020.84 674826.12,3286020.84 674874.83,3286021.16 674874.83,3286021.16 674937.09,3286021.42 674937.09,3286021.42 674985.71,3286021.74 674985.71,3286021.74 675046.38,3286022.07 675046.38,3286022.07 675106.76,3286022.39 675106.76,3286022.39 675160.13,3286022.56">
        <lane index="0" width="3.66" type="shoulder" disallow="all" />
        <lane index="1" width="3.66" />
        <lane index="2" width="3.66" />
    </edge>
    <edge id="451.0" from="node_439_end" to="node_445_start" numLanes="3" speed="13.89" type="town" shape="675550.86,3286024.56 675577.54,3286024.69 675577.54,3286024.69 675628.02,3286024.88">
        <lane index="0" width="3.66" type="shoulder" disallow="all" />
        <lane index="1" width="3.66" />
        <lane index="2" width="3.66" />
    </edge>
</edges>