<?xml version='1.0' encoding='utf-8'?>
<nodes>
    <node id="node_414_start" x="668702.570159239" y="3285426.9519823627" type="priority" />
    <node id="node_414_end" x="668947.3127222405" y="3285528.9058323777" type="priority" />
    <node id="node_416_start" x="669377.9297268159" y="3285708.344736305" type="priority" />
    <node id="node_417_end" x="670626.5414212702" y="3286001.2384741562" type="priority" />
    <node id="node_418_end" x="668890.6810694698" y="3285459.5640357397" type="priority" />
    <node id="node_419_start" x="670688.6584865808" y="3286001.660165992" type="priority" />
    <node id="node_419_end" x="670960.5034572246" y="3286002.9847509526" type="priority" />
    <node id="node_421_start" x="668997.1474392484" y="3285549.83747312" type="priority" />
    <node id="node_421_end" x="669127.6151515583" y="3285604.277597721" type="priority" />
    <node id="node_422_start" x="671185.4739162687" y="3286003.6584570073" type="priority" />
    <node id="node_422_end" x="673724.7305962944" y="3286015.556277121" type="priority" />
    <node id="node_423_end" x="671054.1322414641" y="3286003.2716161874" type="priority" />
    <node id="node_427_start" x="671112.7961208583" y="3286003.4457494877" type="priority" />
    <node id="node_428_start" x="667635.5871362453" y="3284926.5883886474" type="priority" />
    <node id="node_436_start" x="669285.2487018623" y="3285630.0326873353" type="priority" />
    <node id="node_438_end" x="673783.1445840085" y="3286015.8454895685" type="priority" />
    <node id="node_439_start" x="675499.8330439036" y="3286024.326729101" type="priority" />
    <node id="node_439_end" x="675550.8572001553" y="3286024.5642389427" type="priority" />
    <node id="node_440_start" x="675211.8187360717" y="3286022.8279139744" type="priority" />
    <node id="node_440_end" x="675263.8461499414" y="3286023.1000469923" type="priority" />
    <node id="node_443_start" x="676022.75190606" y="3286026.709125079" type="priority" />
    <node id="node_443_end" x="676896.2186817604" y="3286030.9348368947" type="priority" />
    <node id="node_445_start" x="675628.0193005402" y="3286024.8815447674" type="priority" />
    <node id="node_446_start" x="675160.1346543324" y="3286022.5599199766" type="priority" />
    <node id="node_449_end" x="673870.3714009458" y="3286016.20982154" type="priority" />
    <node id="node_431_start" x="667521.2311184179" y="3284861.1960546034" type="priority" />
    <node id="node_441_end" x="677036.3000959904" y="3286031.6255697315" type="priority" />
    <node id="junction_8" x="0.0" y="0.0" type="priority" />
    <node id="junction_64" x="0.0" y="0.0" type="priority" />
    <node id="junction_59" x="0.0" y="0.0" type="priority" />
    <node id="junction_108" x="0.0" y="0.0" type="priority" />
    <node id="junction_4" x="0.0" y="0.0" type="priority" />
    <node id="junction_10" x="0.0" y="0.0" type="priority" />
    <node id="junction_11" x="0.0" y="0.0" type="priority" />
    <node id="junction_67" x="0.0" y="0.0" type="priority" />
    <node id="junction_60" x="0.0" y="0.0" type="priority" />
    <node id="junction_9" x="0.0" y="0.0" type="priority" />
    <node id="junction_65" x="0.0" y="0.0" type="priority" />
    <node id="junction_5" x="0.0" y="0.0" type="priority" />
    <node id="junction_68" x="0.0" y="0.0" type="priority" />
    <node id="junction_12" x="0.0" y="0.0" type="priority" />
    <node id="junction_66" x="0.0" y="0.0" type="priority" />
    <node id="junction_61" x="0.0" y="0.0" type="priority" />
    <node id="junction_13" x="0.0" y="0.0" type="priority" />
    <node id="junction_69" x="0.0" y="0.0" type="priority" />
    <node id="junction_2" x="0.0" y="0.0" type="priority" />
    <node id="junction_58" x="0.0" y="0.0" type="priority" />
    <node id="junction_15" x="0.0" y="0.0" type="priority" />
    <node id="junction_16" x="0.0" y="0.0" type="priority" />
    <node id="junction_71" x="0.0" y="0.0" type="priority" />
    <node id="junction_14" x="0.0" y="0.0" type="priority" />
    <node id="junction_72" x="0.0" y="0.0" type="priority" />
    <node id="junction_70" x="0.0" y="0.0" type="priority" />
    <node id="junction_1" x="0.0" y="0.0" type="priority" />
    <node id="junction_73" x="0.0" y="0.0" type="priority" />
    <node id="junction_17" x="0.0" y="0.0" type="priority" />
    <node id="junction_18" x="0.0" y="0.0" type="priority" />
    <node id="junction_19" x="0.0" y="0.0" type="priority" />
    <node id="junction_74" x="0.0" y="0.0" type="priority" />
    <node id="junction_76" x="0.0" y="0.0" type="priority" />
    <node id="junction_7" x="0.0" y="0.0" type="priority" />
    <node id="junction_20" x="0.0" y="0.0" type="priority" />
    <node id="junction_75" x="0.0" y="0.0" type="priority" />
    <node id="junction_21" x="0.0" y="0.0" type="priority" />
    <node id="junction_77" x="0.0" y="0.0" type="priority" />
    <node id="junction_78" x="0.0" y="0.0" type="priority" />
    <node id="junction_62" x="0.0" y="0.0" type="priority" />
    <node id="junction_22" x="0.0" y="0.0" type="priority" />
    <node id="junction_79" x="0.0" y="0.0" type="priority" />
    <node id="junction_23" x="0.0" y="0.0" type="priority" />
    <node id="junction_3" x="0.0" y="0.0" type="priority" />
    <node id="junction_80" x="0.0" y="0.0" type="priority" />
    <node id="junction_24" x="0.0" y="0.0" type="priority" />
    <node id="junction_25" x="0.0" y="0.0" type="priority" />
    <node id="junction_81" x="0.0" y="0.0" type="priority" />
    <node id="junction_26" x="0.0" y="0.0" type="priority" />
    <node id="junction_82" x="0.0" y="0.0" type="priority" />
    <node id="junction_27" x="0.0" y="0.0" type="priority" />
    <node id="junction_83" x="0.0" y="0.0" type="priority" />
    <node id="junction_29" x="0.0" y="0.0" type="priority" />
    <node id="junction_86" x="0.0" y="0.0" type="priority" />
    <node id="junction_87" x="0.0" y="0.0" type="priority" />
    <node id="junction_30" x="0.0" y="0.0" type="priority" />
    <node id="junction_6" x="0.0" y="0.0" type="priority" />
    <node id="junction_88" x="0.0" y="0.0" type="priority" />
    <node id="junction_31" x="0.0" y="0.0" type="priority" />
    <node id="junction_89" x="0.0" y="0.0" type="priority" />
    <node id="junction_32" x="0.0" y="0.0" type="priority" />
    <node id="junction_33" x="0.0" y="0.0" type="priority" />
    <node id="junction_91" x="0.0" y="0.0" type="priority" />
    <node id="junction_34" x="0.0" y="0.0" type="priority" />
    <node id="junction_90" x="0.0" y="0.0" type="priority" />
    <node id="junction_92" x="0.0" y="0.0" type="priority" />
    <node id="junction_37" x="0.0" y="0.0" type="priority" />
    <node id="junction_36" x="0.0" y="0.0" type="priority" />
    <node id="junction_35" x="0.0" y="0.0" type="priority" />
    <node id="junction_94" x="0.0" y="0.0" type="priority" />
    <node id="junction_93" x="0.0" y="0.0" type="priority" />
    <node id="junction_38" x="0.0" y="0.0" type="priority" />
    <node id="junction_95" x="0.0" y="0.0" type="priority" />
    <node id="junction_96" x="0.0" y="0.0" type="priority" />
    <node id="junction_39" x="0.0" y="0.0" type="priority" />
    <node id="junction_111" x="0.0" y="0.0" type="priority" />
    <node id="junction_99" x="0.0" y="0.0" type="priority" />
    <node id="junction_97" x="0.0" y="0.0" type="priority" />
    <node id="junction_41" x="0.0" y="0.0" type="priority" />
    <node id="junction_40" x="0.0" y="0.0" type="priority" />
    <node id="junction_106" x="0.0" y="0.0" type="priority" />
    <node id="junction_100" x="0.0" y="0.0" type="priority" />
    <node id="junction_42" x="0.0" y="0.0" type="priority" />
    <node id="junction_101" x="0.0" y="0.0" type="priority" />
    <node id="junction_47" x="0.0" y="0.0" type="priority" />
    <node id="junction_43" x="0.0" y="0.0" type="priority" />
    <node id="junction_98" x="0.0" y="0.0" type="priority" />
    <node id="junction_103" x="0.0" y="0.0" type="priority" />
    <node id="junction_44" x="0.0" y="0.0" type="priority" />
    <node id="junction_102" x="0.0" y="0.0" type="priority" />
    <node id="junction_104" x="0.0" y="0.0" type="priority" />
    <node id="junction_63" x="0.0" y="0.0" type="priority" />
    <node id="junction_105" x="0.0" y="0.0" type="priority" />
    <node id="junction_45" x="0.0" y="0.0" type="priority" />
    <node id="junction_46" x="0.0" y="0.0" type="priority" />
    <node id="junction_48" x="0.0" y="0.0" type="priority" />
    <node id="junction_107" x="0.0" y="0.0" type="priority" />
    <node id="junction_49" x="0.0" y="0.0" type="priority" />
    <node id="junction_109" x="0.0" y="0.0" type="priority" />
    <node id="junction_50" x="0.0" y="0.0" type="priority" />
    <node id="junction_51" x="0.0" y="0.0" type="priority" />
    <node id="junction_110" x="0.0" y="0.0" type="priority" />
    <node id="junction_52" x="0.0" y="0.0" type="priority" />
    <node id="junction_53" x="0.0" y="0.0" type="priority" />
    <node id="junction_113" x="0.0" y="0.0" type="priority" />
    <node id="junction_54" x="0.0" y="0.0" type="priority" />
    <node id="junction_55" x="0.0" y="0.0" type="priority" />
    <node id="junction_57" x="0.0" y="0.0" type="priority" />
    <node id="junction_114" x="0.0" y="0.0" type="priority" />
    <node id="junction_56" x="0.0" y="0.0" type="priority" />
    <node id="junction_85" x="675833.5140212165" y="3286025.824922787" type="priority" />
    <node id="junction_28" x="669551.3909696302" y="3285777.9491672884" type="priority" />
    <node id="junction_84" x="668597.9534084352" y="3285380.6184993535" type="priority" />
</nodes>