<?xml version='1.0' encoding='utf-8'?>
<connections>
    <connection from="344.0" to="343.0" fromLane="1" toLane="1" />
    <connection from="344.0" to="343.0" fromLane="2" toLane="2" />
    <connection from="337.0" to="340.0" fromLane="1" toLane="0" />
    <connection from="337.0" to="340.0" fromLane="2" toLane="1" />
    <connection from="337.0" to="349.0" fromLane="1" toLane="0" />
    <connection from="342.0" to="351.0" fromLane="2" toLane="1" />
    <connection from="342.0" to="351.0" fromLane="1" toLane="0" />
    <connection from="342.0" to="357.0" fromLane="1" toLane="0" />
</connections>