<?xml version='1.0' encoding='utf-8'?>
<edges>
    <edge id="337.0" from="j_merge_end_25" to="junction_89" numLanes="3" speed="13.89" type="town" shape="692700.92,3286298.00 692681.29,3286300.26 692681.29,3286300.26 692660.19,3286302.97 692660.19,3286302.97 692639.88,3286305.84 692639.88,3286305.84 692622.89,3286308.33 692622.89,3286308.33 692600.33,3286311.96 692600.33,3286311.96 692582.35,3286315.10 692582.35,3286315.10 692564.91,3286318.22 692564.91,3286318.22 692543.41,3286322.13 692543.41,3286322.13 692523.01,3286325.77 692523.01,3286325.77 692500.83,3286329.74 692500.83,3286329.74 692477.28,3286333.99 692477.28,3286333.99 692457.96,3286337.45 692457.96,3286337.45 692436.32,3286341.31 692436.32,3286341.31 692416.06,3286344.98 692416.06,3286344.98 692392.20,3286349.28 692392.20,3286349.28 692369.29,3286353.41 692369.29,3286353.41 692349.03,3286357.09 692349.03,3286357.09 692327.52,3286360.92 692327.52,3286360.92 692309.00,3286364.24 692309.00,3286364.24 692287.09,3286368.17 692287.09,3286368.17 692262.37,3286372.59 692262.37,3286372.59 692247.86,3286375.21 692247.86,3286375.21 692233.13,3286377.89 692233.13,3286377.89 692218.99,3286380.44 692218.99,3286380.44 692202.80,3286383.34 692202.80,3286383.34 692180.41,3286387.40 692180.41,3286387.40 692162.40,3286390.64 692162.40,3286390.64 692143.28,3286394.13 692143.28,3286394.13 692124.64,3286397.48 692124.64,3286397.48 692105.76,3286400.91 692105.76,3286400.91 692090.52,3286403.67 692090.52,3286403.67 692068.09,3286407.71 692068.09,3286407.71 692048.31,3286411.24 692048.31,3286411.24 692030.52,3286414.45 692030.52,3286414.45 692011.69,3286417.86 692011.69,3286417.86 691998.07,3286420.34 691998.07,3286420.34 691981.60,3286423.31 691981.60,3286423.31 691966.68,3286426.01 691966.68,3286426.01 691953.01,3286428.49 691953.01,3286428.49 691935.10,3286431.66 691935.10,3286431.66 691918.91,3286434.60 691918.91,3286434.60 691901.52,3286437.76 691901.52,3286437.76 691884.46,3286440.84 691884.46,3286440.84 691868.50,3286443.74 691868.50,3286443.74 691852.89,3286446.56 691852.89,3286446.56 691831.80,3286450.32 691831.80,3286450.32 691809.48,3286454.30 691809.48,3286454.30 691784.58,3286458.78 691784.58,3286458.78 691754.55,3286464.17 691754.55,3286464.17 691728.69,3286468.89 691728.69,3286468.89 691697.10,3286474.62 691697.10,3286474.62 691655.58,3286482.19 691655.58,3286482.19 691615.49,3286489.39 691615.49,3286489.39 691583.21,3286495.20 691583.21,3286495.20 691552.62,3286500.75 691552.62,3286500.75 691523.57,3286505.98 691523.57,3286505.98 691493.44,3286511.48 691493.44,3286511.48 691470.60,3286515.59 691470.60,3286515.59 691442.54,3286520.58 691442.54,3286520.58 691415.05,3286525.52 691415.05,3286525.52 691389.12,3286530.19 691389.12,3286530.19 691361.95,3286535.03 691361.95,3286535.03 691333.52,3286540.24 691333.52,3286540.24 691308.83,3286544.72 691308.83,3286544.72 691279.90,3286549.97 691279.90,3286549.97 691254.13,3286554.54 691254.13,3286554.54 691232.20,3286558.50 691232.20,3286558.50 691200.86,3286564.15 691200.86,3286564.15 691168.67,3286569.93 691168.67,3286569.93 691127.56,3286577.37 691127.56,3286577.37 691090.30,3286584.13 691090.30,3286584.13 691067.05,3286588.33 691067.05,3286588.33 691045.67,3286592.19 691045.67,3286592.19 691026.31,3286595.67 691026.31,3286595.67 691005.19,3286599.45 691005.19,3286599.45 690981.96,3286603.62 690981.96,3286603.62 690960.71,3286607.45 690960.71,3286607.45 690938.44,3286611.52 690938.44,3286611.52 690917.00,3286615.34 690917.00,3286615.34 690900.65,3286618.27 690900.65,3286618.27 690877.37,3286622.47 690877.37,3286622.47 690836.95,3286629.82 690836.95,3286629.82 690791.47,3286637.99 690791.47,3286637.99 690743.31,3286646.78 690743.31,3286646.78 690708.99,3286652.94 690708.99,3286652.94 690673.76,3286659.26 690673.76,3286659.26 690645.83,3286664.28 690645.83,3286664.28 690621.50,3286668.64 690621.50,3286668.64 690584.59,3286675.32 690584.59,3286675.32 690542.27,3286683.02 690542.27,3286683.02 690501.64,3286690.33 690501.64,3286690.33 690460.30,3286697.79 690460.30,3286697.79 690387.79,3286710.82 690387.79,3286710.82 690365.31,3286714.82 690365.31,3286714.82 690343.56,3286718.75 690343.56,3286718.75 690323.09,3286722.47 690323.09,3286722.47 690298.01,3286727.04 690298.01,3286727.04 690264.32,3286733.06 690264.32,3286733.06 690241.15,3286737.18 690241.15,3286737.18 690217.59,3286741.38 690217.59,3286741.38 690198.85,3286744.79 690198.85,3286744.79 690174.59,3286749.14 690174.59,3286749.14 690148.98,3286753.72 690148.98,3286753.72 690125.01,3286758.03 690125.01,3286758.03 690095.47,3286763.30 690095.47,3286763.30 690070.10,3286767.90 690070.10,3286767.90 690047.20,3286772.00 690047.20,3286772.00 690007.19,3286779.24 690007.19,3286779.24 689967.72,3286786.36 689967.72,3286786.36 689940.15,3286791.35 689940.15,3286791.35 689911.38,3286796.51 689911.38,3286796.51 689888.11,3286800.71 689888.11,3286800.71 689862.83,3286805.19 689862.83,3286805.19 689825.46,3286811.72 689825.46,3286811.72 689789.84,3286817.95 689789.84,3286817.95 689760.26,3286823.21 689760.26,3286823.21 689739.96,3286826.86 689739.96,3286826.86 689704.76,3286832.96 689704.76,3286832.96 689667.22,3286839.18 689667.22,3286839.18 689639.20,3286843.62 689639.20,3286843.62 689615.13,3286847.25 689615.13,3286847.25 689588.25,3286851.27 689588.25,3286851.27 689562.81,3286854.98 689562.81,3286854.98 689535.60,3286858.89 689535.60,3286858.89 689502.59,3286863.52 689502.59,3286863.52 689467.24,3286868.12 689467.24,3286868.12 689441.60,3286871.42 689441.60,3286871.42 689418.01,3286874.33 689418.01,3286874.33 689407.96,3286875.59 689407.96,3286875.59 689385.50,3286878.25 689385.50,3286878.25 689367.31,3286880.37 689367.31,3286880.37 689345.09,3286882.90 689345.09,3286882.90 689329.29,3286884.62 689329.29,3286884.62 689311.13,3286886.56 689311.13,3286886.56 689290.96,3286888.69 689290.96,3286888.69 689274.60,3286890.36 689274.60,3286890.36 689254.76,3286892.34 689254.76,3286892.34 689234.55,3286894.37 689234.55,3286894.37 689216.48,3286896.15 689216.48,3286896.15 689187.70,3286898.80 689187.70,3286898.80 689162.06,3286901.09 689162.06,3286901.09 689142.58,3286902.75 689142.58,3286902.75 689120.94,3286904.51 689120.94,3286904.51 689101.48,3286906.04 689101.48,3286906.04 689083.24,3286907.41 689083.24,3286907.41 689070.14,3286908.36 689070.14,3286908.36 689053.71,3286909.55 689053.71,3286909.55 689039.76,3286910.53 689039.76,3286910.53 689023.39,3286911.58 689023.39,3286911.58 689008.09,3286912.58 689008.09,3286912.58 688989.73,3286913.66 688989.73,3286913.66 688971.80,3286914.68 688971.80,3286914.68 688955.94,3286915.54 688955.94,3286915.54 688940.92,3286916.33 688940.92,3286916.33 688923.52,3286917.24 688923.52,3286917.24 688908.35,3286918.00 688908.35,3286918.00 688891.09,3286918.80 688891.09,3286918.80 688875.31,3286919.51 688875.31,3286919.51 688866.57,3286919.94 688866.57,3286919.94 688853.89,3286920.49 688853.89,3286920.49 688842.49,3286920.98 688842.49,3286920.98 688830.82,3286921.44 688830.82,3286921.44 688816.23,3286922.03 688816.23,3286922.03 688801.66,3286922.55 688801.66,3286922.55 688786.80,3286923.07 688786.80,3286923.07 688772.29,3286923.56 688772.29,3286923.56 688758.10,3286923.97 688758.10,3286923.97 688741.60,3286924.43 688741.60,3286924.43 688723.51,3286924.86 688723.51,3286924.86 688705.17,3286925.25 688705.17,3286925.25 688685.86,3286925.59 688685.86,3286925.59 688660.96,3286925.94 688660.96,3286925.94 688649.33,3286926.07 688649.33,3286926.07 688636.63,3286926.20 688636.63,3286926.20 688617.46,3286926.39 688617.46,3286926.39 688598.68,3286926.56 688598.68,3286926.56 688582.97,3286926.69 688582.97,3286926.69 688567.35,3286926.72 688567.35,3286926.72 688555.56,3286926.70 688555.56,3286926.70 688542.60,3286926.69 688542.60,3286926.69 688530.52,3286926.64 688530.52,3286926.64 688517.87,3286926.56 688517.87,3286926.56 688503.75,3286926.43 688503.75,3286926.43 688492.27,3286926.29 688492.27,3286926.29 688480.35,3286926.14 688480.35,3286926.14 688469.48,3286925.97 688469.48,3286925.97 688454.41,3286925.74 688454.41,3286925.74 688433.21,3286925.37 688433.21,3286925.37 688418.41,3286925.10 688418.41,3286925.10 688399.95,3286924.70 688399.95,3286924.70 688381.78,3286924.27 688381.78,3286924.27 688361.26,3286923.76 688361.26,3286923.76 688343.24,3286923.22 688343.24,3286923.22 688324.54,3286922.54 688324.54,3286922.54 688311.85,3286922.04 688311.85,3286922.04 688296.63,3286921.43 688296.63,3286921.43 688277.36,3286920.67 688277.36,3286920.67 688262.33,3286920.06 688262.33,3286920.06 688246.14,3286919.36 688246.14,3286919.36 688228.20,3286918.59 688228.20,3286918.59 688197.64,3286917.26 688197.64,3286917.26 688170.74,3286916.03 688170.74,3286916.03 688144.46,3286914.83 688144.46,3286914.83 688116.86,3286913.42 688116.86,3286913.42 688084.18,3286911.85 688084.18,3286911.85 688060.59,3286910.72 688060.59,3286910.72 688029.60,3286909.21 688029.60,3286909.21 688008.97,3286908.25 688008.97,3286908.25 687988.08,3286907.21 687988.08,3286907.21 687950.73,3286905.44 687950.73,3286905.44 687922.29,3286904.06 687922.29,3286904.06 687889.14,3286902.53 687889.14,3286902.53 687858.81,3286901.01 687858.81,3286901.01 687832.31,3286899.79 687832.31,3286899.79 687806.33,3286898.55 687806.33,3286898.55 687786.84,3286897.64 687786.84,3286897.64 687758.73,3286896.34 687758.73,3286896.34 687731.15,3286895.03 687731.15,3286895.03 687714.62,3286894.23 687714.62,3286894.23 687686.58,3286892.87 687686.58,3286892.87 687665.14,3286891.82 687665.14,3286891.82 687636.86,3286890.43 687636.86,3286890.43 687614.57,3286889.35 687614.57,3286889.35 687597.44,3286888.53 687597.44,3286888.53 687578.02,3286887.61 687578.02,3286887.61 687558.58,3286886.67 687558.58,3286886.67 687535.26,3286885.53 687535.26,3286885.53 687515.64,3286884.65 687515.64,3286884.65 687493.88,3286883.65 687493.88,3286883.65 687472.27,3286882.58 687472.27,3286882.58 687437.36,3286880.95 687437.36,3286880.95 687402.94,3286879.29 687402.94,3286879.29 687377.54,3286878.11 687377.54,3286878.11 687352.51,3286876.86 687352.51,3286876.86 687329.06,3286875.77 687329.06,3286875.77 687311.44,3286874.91 687311.44,3286874.91 687297.72,3286874.25 687297.72,3286874.25 687284.50,3286873.64 687284.50,3286873.64 687265.12,3286872.72 687265.12,3286872.72 687248.10,3286871.91 687248.10,3286871.91 687223.25,3286870.73 687223.25,3286870.73 687195.93,3286869.49 687195.93,3286869.49 687171.42,3286868.29 687171.42,3286868.29 687148.18,3286867.22 687148.18,3286867.22 687117.43,3286865.75 687117.43,3286865.75 687106.66,3286865.25 687106.66,3286865.25 687090.98,3286864.52 687090.98,3286864.52 687077.49,3286863.87 687077.49,3286863.87 687063.18,3286863.20 687063.18,3286863.20 687050.19,3286862.56 687050.19,3286862.56 687031.12,3286861.66 687031.12,3286861.66 687014.52,3286860.88 687014.52,3286860.88 686997.26,3286860.04 686997.26,3286860.04 686980.37,3286859.24 686980.37,3286859.24 686960.17,3286858.29 686960.17,3286858.29 686944.67,3286857.56 686944.67,3286857.56 686931.34,3286856.89 686931.34,3286856.89 686911.56,3286855.96 686911.56,3286855.96 686894.00,3286855.11 686894.00,3286855.11 686875.96,3286854.24 686875.96,3286854.24 686852.59,3286853.13 686852.59,3286853.13 686830.17,3286852.06 686830.17,3286852.06 686805.36,3286850.83 686805.36,3286850.83 686781.65,3286849.72 686781.65,3286849.72 686759.40,3286848.68 686759.40,3286848.68 686722.10,3286846.90 686722.10,3286846.90 686695.84,3286845.65 686695.84,3286845.65 686675.18,3286844.68 686675.18,3286844.68 686661.79,3286844.01 686661.79,3286844.01 686647.02,3286843.31 686647.02,3286843.31 686631.97,3286842.57 686631.97,3286842.57 686613.53,3286841.70 686613.53,3286841.70 686596.45,3286840.84 686596.45,3286840.84 686579.34,3286840.02 686579.34,3286840.02 686562.59,3286839.25 686562.59,3286839.25 686547.48,3286838.55 686547.48,3286838.55 686526.45,3286837.55 686526.45,3286837.55 686507.18,3286836.60 686507.18,3286836.60 686481.39,3286835.35 686481.39,3286835.35 686462.88,3286834.49 686462.88,3286834.49 686449.18,3286833.83 686449.18,3286833.83 686431.66,3286832.97 686431.66,3286832.97 686418.70,3286832.37 686418.70,3286832.37 686402.40,3286831.61 686402.40,3286831.61 686381.93,3286830.62 686381.93,3286830.62 686363.13,3286829.71 686363.13,3286829.71 686344.06,3286828.83 686344.06,3286828.83 686324.52,3286827.89 686324.52,3286827.89 686309.32,3286827.16 686309.32,3286827.16 686290.85,3286826.30 686290.85,3286826.30 686274.60,3286825.54 686274.60,3286825.54 686255.24,3286824.60 686255.24,3286824.60 686239.51,3286823.83 686239.51,3286823.83 686217.52,3286822.80 686217.52,3286822.80 686200.41,3286822.02 686200.41,3286822.02 686179.19,3286820.99 686179.19,3286820.99 686154.42,3286819.80 686154.42,3286819.80 686130.92,3286818.65 686130.92,3286818.65 686106.46,3286817.45 686106.46,3286817.45 686089.93,3286816.65 686089.93,3286816.65 686067.82,3286815.62 686067.82,3286815.62 686038.73,3286814.26 686038.73,3286814.26 686013.34,3286813.10 686013.34,3286813.10 685983.73,3286811.69 685983.73,3286811.69 685950.45,3286810.12 685950.45,3286810.12 685924.16,3286808.91 685924.16,3286808.91 685897.47,3286807.58 685897.47,3286807.58 685870.52,3286806.28 685870.52,3286806.28 685848.08,3286805.19 685848.08,3286805.19 685822.97,3286803.98 685822.97,3286803.98 685802.13,3286802.99 685802.13,3286802.99 685775.64,3286801.74 685775.64,3286801.74 685756.35,3286800.80 685756.35,3286800.80 685729.60,3286799.48 685729.60,3286799.48 685706.80,3286798.41 685706.80,3286798.41 685685.12,3286797.40 685685.12,3286797.40 685659.54,3286796.12 685659.54,3286796.12 685626.32,3286794.52 685626.32,3286794.52 685600.65,3286793.30 685600.65,3286793.30 685587.35,3286792.66 685587.35,3286792.66 685561.09,3286791.44 685561.09,3286791.44 685535.89,3286790.27 685535.89,3286790.27 685515.29,3286789.28 685515.29,3286789.28 685493.85,3286788.26 685493.85,3286788.26 685469.85,3286787.08 685469.85,3286787.08 685442.86,3286785.88 685442.86,3286785.88 685422.05,3286784.90 685422.05,3286784.90 685397.23,3286783.66 685397.23,3286783.66 685379.71,3286782.82 685379.71,3286782.82 685358.69,3286781.78 685358.69,3286781.78 685337.17,3286780.75 685337.17,3286780.75 685311.96,3286779.53 685311.96,3286779.53 685286.02,3286778.33 685286.02,3286778.33 685260.99,3286777.14 685260.99,3286777.14 685232.12,3286775.73 685232.12,3286775.73 685213.76,3286774.85 685213.76,3286774.85 685198.78,3286774.17 685198.78,3286774.17 685181.38,3286773.34 685181.38,3286773.34 685162.38,3286772.46 685162.38,3286772.46 685144.30,3286771.63 685144.30,3286771.63 685127.19,3286770.80 685127.19,3286770.80 685107.51,3286769.91 685107.51,3286769.91 685095.14,3286769.32 685095.14,3286769.32 685076.41,3286768.44 685076.41,3286768.44 685056.69,3286767.48 685056.69,3286767.48 685039.17,3286766.65 685039.17,3286766.65 685021.80,3286765.86 685021.80,3286765.86 685004.60,3286765.07 685004.60,3286765.07 684985.86,3286764.28 684985.86,3286764.28 684977.37,3286763.89 684977.37,3286763.89 684966.18,3286763.39 684966.18,3286763.39 684951.53,3286762.76 684951.53,3286762.76 684937.29,3286762.17 684937.29,3286762.17 684924.09,3286761.56 684924.09,3286761.56 684908.94,3286760.90 684908.94,3286760.90 684878.04,3286759.57 684878.04,3286759.57 684851.36,3286758.52 684851.36,3286758.52 684824.13,3286757.38 684824.13,3286757.38 684805.24,3286756.61 684805.24,3286756.61 684786.02,3286755.86 684786.02,3286755.86 684765.07,3286755.03 684765.07,3286755.03 684741.88,3286754.06 684741.88,3286754.06 684721.43,3286753.21 684721.43,3286753.21 684698.32,3286752.22 684698.32,3286752.22 684678.17,3286751.39 684678.17,3286751.39 684652.28,3286750.34 684652.28,3286750.34 684633.08,3286749.55 684633.08,3286749.55 684613.60,3286748.75 684613.60,3286748.75 684592.08,3286747.83 684592.08,3286747.83 684569.59,3286746.96 684569.59,3286746.96 684546.84,3286745.99 684546.84,3286745.99 684525.03,3286745.08 684525.03,3286745.08 684493.82,3286743.74 684493.82,3286743.74 684471.02,3286742.74 684471.02,3286742.74 684446.01,3286741.66 684446.01,3286741.66 684419.90,3286740.58 684419.90,3286740.58 684393.55,3286739.46 684393.55,3286739.46 684368.05,3286738.44 684368.05,3286738.44 684347.91,3286737.59 684347.91,3286737.59 684328.46,3286736.82 684328.46,3286736.82 684305.21,3286735.86 684305.21,3286735.86 684272.14,3286734.48 684272.14,3286734.48 684240.17,3286733.16 684240.17,3286733.16 684211.28,3286731.91 684211.28,3286731.91 684187.63,3286730.87 684187.63,3286730.87 684157.25,3286729.57 684157.25,3286729.57 684121.90,3286728.12">
        <lane index="0" width="3.66" type="shoulder" disallow="all" />
        <lane index="1" width="3.66" />
        <lane index="2" width="3.66" />
    </edge>
    <edge id="340.0" from="junction_89" to="node_340_end" numLanes="2" speed="13.89" type="town" shape="684065.39,3286725.84 684043.08,3286724.91 684043.08,3286724.91 684028.23,3286724.30">
        <lane index="0" width="3.66" />
        <lane index="1" width="3.66" />
    </edge>
    <edge id="341.0" from="node_341_start" to="node_341_end" numLanes="1" speed="13.89" type="town" shape="684027.50,3286734.45 684020.53,3286734.80 684020.53,3286734.80 684006.80,3286735.42 684006.80,3286735.42 683985.91,3286736.26 683985.91,3286736.26 683969.97,3286736.93 683969.97,3286736.93 683955.42,3286737.54 683955.42,3286737.54 683937.67,3286738.32 683937.67,3286738.32 683920.33,3286739.01 683920.33,3286739.01 683905.21,3286739.70 683905.21,3286739.70 683885.12,3286740.57 683885.12,3286740.57 683867.16,3286741.35 683867.16,3286741.35 683842.10,3286742.43 683842.10,3286742.43 683820.01,3286743.38 683820.01,3286743.38 683791.14,3286744.71 683791.14,3286744.71 683746.84,3286746.63">
        <lane index="0" width="3.66" />
    </edge>