<?xml version='1.0' encoding='utf-8'?>
<edges>
    <edge id="10.0" from="j_merge_end_3" to="junction_59" numLanes="5" speed="13.89" type="town" shape="798694.12,3298103.28 798712.99,3298104.17 798712.99,3298104.17 799066.80,3298114.89">
        <lane index="0" width="3.66" type="shoulder" disallow="all" />
        <lane index="1" width="3.66" />
        <lane index="2" width="3.66" />
        <lane index="3" width="3.66" />
        <lane index="4" width="3.66" type="shoulder" disallow="all" />
    </edge>
    <edge id="13.0" from="junction_4" to="junction_60" numLanes="5" speed="13.89" type="town" shape="800304.29,3298152.18 800339.75,3298153.78 800339.75,3298153.78 800872.44,3298169.36">
        <lane index="0" width="3.66" type="shoulder" disallow="all" />
        <lane index="1" width="3.66" />
        <lane index="2" width="3.66" />
        <lane index="3" width="3.66" />
        <lane index="4" width="3.66" type="shoulder" disallow="all" />
    </edge>
    <edge id="16.0" from="j_merge_end_5" to="junction_61" numLanes="5" speed="13.89" type="town" shape="802335.65,3298213.82 803171.99,3298238.79 803171.99,3298238.79 803304.83,3298243.03">
        <lane index="0" width="3.66" type="shoulder" disallow="all" />
        <lane index="1" width="3.66" />
        <lane index="2" width="3.66" />
        <lane index="3" width="3.66" />
        <lane index="4" width="3.66" type="shoulder" disallow="all" />
    </edge>
    <edge id="30.0" from="junction_62" to="node_30_end" numLanes="1" speed="13.89" type="town" shape="797308.52,3298068.31 797331.67,3298063.74 797331.67,3298063.74 797344.00,3298061.06 797344.00,3298061.06 797384.86,3298051.83 797384.86,3298051.83 797406.69,3298045.86 797406.69,3298045.86 797427.81,3298038.18">
        <lane index="0" width="3.66" />
    </edge>
    <edge id="32.0" from="junction_59" to="node_32_end" numLanes="1" speed="13.89" type="town" shape="799132.08,3298102.38 799156.85,3298099.86 799156.85,3298099.86 799229.01,3298093.59 799229.01,3298093.59 799294.11,3298088.69">
        <lane index="0" width="3.66" />
    </edge>
    <edge id="35.0" from="node_35_start" to="j_merge_start_3" numLanes="1" speed="13.89" type="town" shape="797892.40,3297926.25 797918.90,3297942.58 797918.90,3297942.58 798045.86,3298022.31 798045.86,3298022.31 798068.71,3298035.78 798068.71,3298035.78 798082.05,3298042.51 798082.05,3298042.51 798095.25,3298047.67 798095.25,3298047.67 798114.42,3298054.11 798114.42,3298054.11 798142.07,3298060.24 798142.07,3298060.24 798174.20,3298065.44 798174.20,3298065.44 798195.73,3298068.49 798195.73,3298068.49 798213.74,3298070.70 798213.74,3298070.70 798264.50,3298074.19 798264.50,3298074.19 798293.73,3298075.69 798293.73,3298075.69 798378.04,3298079.23">
        <lane index="0" width="3.66" />
    </edge>
    <edge id="36.0" from="node_36_start" to="junction_4" numLanes="1" speed="13.89" type="town" shape="799823.05,3298078.49 799849.84,3298089.41 799849.84,3298089.41 799877.39,3298096.69 799877.39,3298096.69 799943.79,3298106.39 799943.79,3298106.39 800023.71,3298120.98 800023.71,3298120.98 800046.16,3298123.92 800046.16,3298123.92 800076.02,3298126.97 800076.02,3298126.97 800115.11,3298130.01 800115.11,3298130.01 800176.44,3298134.09">
        <lane index="0" width="3.66" />
    </edge>
    <edge id="37.0" from="junction_60" to="node_37_end" numLanes="1" speed="13.89" type="town" shape="800954.07,3298157.73 800980.59,3298156.57 800980.59,3298156.57 801056.70,3298153.47 801056.70,3298153.47 801132.82,3298149.31">
        <lane index="0" width="3.66" />
    </edge>
    <edge id="40.0" from="node_40_start" to="j_merge_start_5" numLanes="1" speed="13.89" type="town" shape="801774.30,3298102.35 801802.22,3298126.76 801802.22,3298126.76 801828.18,3298145.63 801828.18,3298145.63 801840.27,3298152.34 801840.27,3298152.34 801851.62,3298157.68 801851.62,3298157.68 801863.86,3298161.98 801863.86,3298161.98 801876.37,3298165.78 801876.37,3298165.78 801902.77,3298171.66 801902.77,3298171.66 801940.72,3298178.32 801940.72,3298178.32 801970.22,3298182.46 801970.22,3298182.46 801999.35,3298185.26 801999.35,3298185.26 802018.55,3298186.62 802018.55,3298186.62 802103.07,3298190.73 802103.07,3298190.73 802172.78,3298194.55">
        <lane index="0" width="3.66" />
    </edge>
    <edge id="41.0" from="junction_61" to="node_41_end" numLanes="1" speed="13.89" type="town" shape="803443.22,3298232.62 803477.75,3298232.26 803477.75,3298232.26 803836.17,3298230.90 803836.17,3298230.90 803880.35,3298230.98">
        <lane index="0" width="3.66" />
    </edge>
    <edge id="60.0" from="junction_62" to="node_60_end" numLanes="4" speed="13.89" type="town" shape="797310.22,3298082.56 797349.78,3298078.04 797349.78,3298078.04 797358.26,3298076.63 797358.26,3298076.63 797369.03,3298076.10">
        <lane index="0" width="3.66" />
        <lane index="1" width="3.66" />
        <lane index="2" width="3.66" />
        <lane index="3" width="3.66" type="shoulder" disallow="all" />
    </edge>
    <edge id="61.0" from="node_60_end" to="node_61_end" numLanes="5" speed="13.89" type="town" shape="797369.03,3298076.10 797420.00,3298072.41 797420.00,3298072.41 797447.30,3298071.04 797447.30,3298071.04 797474.69,3298069.99 797474.69,3298069.99 797496.93,3298069.38 797496.93,3298069.38 797516.07,3298069.13 797516.07,3298069.13 797569.84,3298069.51 797569.84,3298069.51 798169.79,3298087.42 798169.79,3298087.42 798193.57,3298088.31">
        <lane index="0" width="3.66" type="shoulder" disallow="all" />
        <lane index="1" width="3.66" />
        <lane index="2" width="3.66" />
        <lane index="3" width="3.66" />
        <lane index="4" width="3.66" type="shoulder" disallow="all" />
    </edge>
    <edge id="62.0" from="node_61_end" to="j_merge_start_3" numLanes="4" speed="13.89" type="town" shape="798193.57,3298088.31 798300.12,3298091.85 798300.12,3298091.85 798377.56,3298094.29">
        <lane index="0" width="3.66" />
        <lane index="1" width="3.66" />
        <lane index="2" width="3.66" />
        <lane index="3" width="3.66" type="shoulder" disallow="all" />
    </edge>
    <edge id="63.0" from="junction_59" to="node_63_end" numLanes="4" speed="13.89" type="town" shape="799131.61,3298117.07 799183.44,3298118.35">
        <lane index="0" width="3.66" />
        <lane index="1" width="3.66" />
        <lane index="2" width="3.66" />
        <lane index="3" width="3.66" type="shoulder" disallow="all" />
    </edge>
    <edge id="64.0" from="node_63_end" to="node_64_end" numLanes="5" speed="13.89" type="town" shape="799183.44,3298118.35 799593.56,3298130.62 799593.56,3298130.62 800061.13,3298144.95">
        <lane index="0" width="3.66" type="shoulder" disallow="all" />
        <lane index="1" width="3.66" />
        <lane index="2" width="3.66" />
        <lane index="3" width="3.66" />
        <lane index="4" width="3.66" type="shoulder" disallow="all" />
    </edge>
    <edge id="65.0" from="node_64_end" to="junction_4" numLanes="4" speed="13.89" type="town" shape="800061.13,3298144.95 800175.93,3298148.45">
        <lane index="0" width="3.66" />
        <lane index="1" width="3.66" />
        <lane index="2" width="3.66" />
        <lane index="3" width="3.66" type="shoulder" disallow="all" />
    </edge>
    <edge id="66.0" from="junction_60" to="node_66_end" numLanes="4" speed="13.89" type="town" shape="800953.64,3298172.00 801064.56,3298175.43">
        <lane index="0" width="3.66" />
        <lane index="1" width="3.66" />
        <lane index="2" width="3.66" />
        <lane index="3" width="3.66" type="shoulder" disallow="all" />
    </edge>
    <edge id="67.0" from="node_66_end" to="node_67_end" numLanes="5" speed="13.89" type="town" shape="801064.56,3298175.43 801875.75,3298199.62 801875.75,3298199.62 801975.58,3298202.83">
        <lane index="0" width="3.66" type="shoulder" disallow="all" />
        <lane index="1" width="3.66" />
        <lane index="2" width="3.66" />
        <lane index="3" width="3.66" />
        <lane index="4" width="3.66" type="shoulder" disallow="all" />
    </edge>
    <edge id="68.0" from="node_67_end" to="j_merge_start_5" numLanes="4" speed="13.89" type="town" shape="801975.58,3298202.83 802002.09,3298203.48 802002.09,3298203.48 802172.35,3298208.91">
        <lane index="0" width="3.66" />
        <lane index="1" width="3.66" />
        <lane index="2" width="3.66" />
        <lane index="3" width="3.66" type="shoulder" disallow="all" />
    </edge>
    <edge id="69.0" from="junction_61" to="node_69_end" numLanes="4" speed="13.89" type="town" shape="803442.72,3298247.02 803494.03,3298248.73 803494.03,3298248.73 803619.70,3298252.35">
        <lane index="0" width="3.66" />
        <lane index="1" width="3.66" />
        <lane index="2" width="3.66" />
        <lane index="3" width="3.66" type="shoulder" disallow="all" />
    </edge>
    <edge id="70.0" from="node_69_end" to="node_70_end" numLanes="5" speed="13.89" type="town" shape="803619.70,3298252.35 803909.35,3298261.08 803909.35,3298261.08 803961.93,3298262.47 803961.93,3298262.47 804026.50,3298263.37 804026.50,3298263.37 804375.91,3298254.45 804375.91,3298254.45 804438.59,3298253.39 804438.59,3298253.39 804527.79,3298253.94 804527.79,3298253.94 804556.02,3298253.77 804556.02,3298253.77 804572.76,3298254.97 804572.76,3298254.97 804614.20,3298256.51 804614.20,3298256.51 805195.24,3298283.86">
        <lane index="0" width="3.66" type="shoulder" disallow="all" />
        <lane index="1" width="3.66" />
        <lane index="2" width="3.66" />
        <lane index="3" width="3.66" />
        <lane index="4" width="3.66" type="shoulder" disallow="all" />
    </edge>
    <edge id="71.0" from="node_70_end" to="node_71_end" numLanes="4" speed="13.89" type="town" shape="805195.24,3298283.86 805224.57,3298285.74 805224.57,3298285.74 805271.41,3298287.89 805271.41,3298287.89 805311.88,3298289.35">
        <lane index="0" width="3.66" />
        <lane index="1" width="3.66" />
        <lane index="2" width="3.66" />
        <lane index="3" width="3.66" type="shoulder" disallow="all" />
    </edge>
    <edge id="47.0" from="j_merge_end_6" to="junction_62" numLanes="5" speed="13.89" type="town" shape="795770.53,3298217.94 796016.31,3298227.01 796016.31,3298227.01 796044.54,3298227.56 796044.54,3298227.56 796093.34,3298227.06 796093.34,3298227.06 796102.51,3298227.18 796102.51,3298227.18 796111.96,3298226.18 796111.96,3298226.18 796131.04,3298225.04 796131.04,3298225.04 796148.90,3298223.30 796148.90,3298223.30 796158.01,3298222.95 796158.01,3298222.95 796172.51,3298221.54 796172.51,3298221.54 796199.58,3298218.58 796199.58,3298218.58 796226.90,3298215.38 796226.90,3298215.38 796233.62,3298214.62 796233.62,3298214.62 796239.93,3298214.16 796239.93,3298214.16 796248.49,3298212.72 796248.49,3298212.72 796281.31,3298208.80 796281.31,3298208.80 796390.37,3298195.76 796390.37,3298195.76 796423.13,3298191.43 796423.13,3298191.43 797008.84,3298119.86 797008.84,3298119.86 797234.44,3298091.89">
        <lane index="0" width="3.66" type="shoulder" disallow="all" />
        <lane index="1" width="3.66" />
        <lane index="2" width="3.66" />
        <lane index="3" width="3.66" />
        <lane index="4" width="3.66" type="shoulder" disallow="all" />
    </edge>
    <edge id="18.0" from="node_71_end" to="node_18_end" numLanes="5" speed="13.89" type="town" shape="805311.88,3298289.35 805403.57,3298292.51">
        <lane index="0" width="3.66" />
        <lane index="1" width="3.66" />
        <lane index="2" width="3.66" />
        <lane index="3" width="3.66" />
        <lane index="4" width="3.66" type="shoulder" disallow="all" />
    </edge>
    <edge id="merge_zone_5" from="j_merge_start_5" to="j_merge_end_5" numLanes="5" speed="13.89" name="Merge zone 5" type="highway_merge" shape="802172.35,3298208.91 802335.65,3298213.82">
        <lane index="0" width="3.66" />
        <lane index="1" width="3.66" />
        <lane index="2" width="3.66" />
        <lane index="3" width="3.66" />
        <lane index="4" width="3.66" type="shoulder" disallow="all" />
    </edge>
    <edge id="merge_zone_3" from="j_merge_start_3" to="j_merge_end_3" numLanes="5" speed="13.89" name="Merge zone 3" type="highway_merge" shape="798377.56,3298094.29 798694.12,3298103.28">
        <lane index="0" width="3.66" />
        <lane index="1" width="3.66" />
        <lane index="2" width="3.66" />
        <lane index="3" width="3.66" />
        <lane index="4" width="3.66" type="shoulder" disallow="all" />
    </edge>
</edges>