<?xml version="1.0" encoding="UTF-8"?>

<!-- generated on 2025-10-19 02:53:02 by Eclipse SUMO netconvert Version 1.23.1
<netconvertConfiguration xmlns:xsi="http://www.w3.org/2001/XMLSchema-instance" xsi:noNamespaceSchemaLocation="http://sumo.dlr.de/xsd/netconvertConfiguration.xsd">

    <input>
        <node-files value="/home/sdai/harry/TeraSim/examples/xodr_sumo_maps/xodr/Town01_tiles/tile_0000/tile_0000.nod.xml"/>
        <edge-files value="/home/sdai/harry/TeraSim/examples/xodr_sumo_maps/xodr/Town01_tiles/tile_0000/tile_0000.edg.xml"/>
        <connection-files value="/home/sdai/harry/TeraSim/examples/xodr_sumo_maps/xodr/Town01_tiles/tile_0000/tile_0000.con.xml"/>
    </input>

    <output>
        <output-file value="/home/sdai/harry/TeraSim/examples/xodr_sumo_maps/xodr/Town01_tiles/tile_0000/tile_0000.net.xml"/>
        <output.street-names value="true"/>
        <output.original-names value="true"/>
    </output>

    <processing>
        <geometry.remove value="false"/>
        <geometry.min-dist value="0.5"/>
        <edges.join value="false"/>
    </processing>

    <junctions>
        <no-internal-links value="false"/>
        <no-turnarounds value="true"/>
        <junctions.join value="true"/>
        <junctions.join-dist value="10"/>
        <junctions.corner-detail value="5"/>
        <junctions.internal-link-detail value="5"/>
        <junctions.limit-turn-speed value="5.5"/>
        <rectangular-lane-cut value="true"/>
        <check-lane-foes.all value="true"/>
    </junctions>

</netconvertConfiguration>
-->

<net version="1.20" junctionCornerDetail="5" junctionLinkDetail="5" rectangularLaneCut="true" limitTurnSpeed="5.50" checkLaneFoesAll="1" xmlns:xsi="http://www.w3.org/2001/XMLSchema-instance" xsi:noNamespaceSchemaLocation="http://sumo.dlr.de/xsd/net_file.xsd">

    <location netOffset="0.06,328.61" convBoundary="0.00,0.00,394.44,328.66" origBoundary="-0.06,-328.61,394.38,0.05" projParameter="!"/>

    <edge id=":junction_111_0" function="internal">
        <lane id=":junction_111_0_0" index="0" speed="8.45" length="15.77" width="3.66" shape="335.10,286.11 334.28,283.57 331.81,281.75 327.70,280.65 321.94,280.29"/>
    </edge>
    <edge id=":junction_111_1" function="internal">
        <lane id=":junction_111_1_0" index="0" speed="5.97" length="1.95" width="3.66" shape="335.10,286.11 336.18,284.49"/>
    </edge>
    <edge id=":junction_111_7" function="internal">
        <lane id=":junction_111_7_0" index="0" speed="5.97" length="14.09" width="3.66" shape="336.18,284.49 337.84,282.00 340.59,280.62 343.33,281.99 346.08,286.11"/>
    </edge>
    <edge id=":junction_111_2" function="internal">
        <lane id=":junction_111_2_0" index="0" speed="13.89" length="29.96" width="3.66" shape="346.07,256.15 346.08,286.11"/>
        <lane id=":junction_111_2_1" index="1" speed="13.89" length="29.96" width="3.66" shape="338.75,256.15 338.76,286.11"/>
    </edge>
    <edge id=":junction_111_4" function="internal">
        <lane id=":junction_111_4_0" index="0" speed="10.91" length="27.12" width="3.66" shape="338.75,256.15 337.70,263.51 334.55,268.77 329.30,271.92 321.94,272.97"/>
    </edge>
    <edge id=":junction_111_5" function="internal">
        <lane id=":junction_111_5_0" index="0" speed="12.03" length="33.22" width="3.66" shape="321.94,269.31 332.50,270.36 340.04,273.51 344.57,278.76 346.08,286.11"/>
    </edge>
    <edge id=":junction_111_6" function="internal">
        <lane id=":junction_111_6_0" index="0" speed="5.97" length="16.04" width="3.66" shape="321.94,269.31 326.06,272.06 327.43,274.80 326.06,277.55 321.94,280.29"/>
    </edge>
    <edge id=":junction_128_0" function="internal">
        <lane id=":junction_128_0_0" index="0" speed="6.67" length="9.40" width="3.66" shape="105.44,140.62 102.89,140.98 101.07,142.08 99.97,143.90 99.61,146.45"/>
    </edge>
    <edge id=":junction_128_1" function="internal">
        <lane id=":junction_128_1_0" index="0" speed="12.03" length="33.23" width="3.66" shape="105.44,140.62 98.09,139.11 92.83,134.59 89.68,127.05 88.63,116.49"/>
    </edge>
    <edge id=":junction_128_2" function="internal">
        <lane id=":junction_128_2_0" index="0" speed="8.44" length="15.76" width="3.66" shape="99.61,116.49 99.97,122.24 101.07,126.35 102.89,128.82 105.44,129.64"/>
    </edge>
    <edge id=":junction_128_3" function="internal">
        <lane id=":junction_128_3_0" index="0" speed="10.91" length="23.60" width="3.66" shape="88.63,146.45 89.68,139.09 92.83,133.84 98.09,130.69 101.97,130.14"/>
    </edge>
    <edge id=":junction_128_4" function="internal">
        <lane id=":junction_128_4_0" index="0" speed="5.97" length="16.04" width="3.66" shape="88.63,146.45 91.37,142.33 94.12,140.96 96.86,142.33 99.61,146.45"/>
    </edge>
    <edge id=":junction_128_5" function="internal">
        <lane id=":junction_128_5_0" index="0" speed="10.91" length="3.51" width="3.66" shape="101.97,130.14 105.44,129.64"/>
    </edge>
    <edge id=":junction_139_0" function="internal">
        <lane id=":junction_139_0_0" index="0" speed="8.44" length="15.77" width="3.66" shape="335.06,212.06 334.24,209.51 331.77,207.69 327.66,206.60 321.90,206.24"/>
    </edge>
    <edge id=":junction_139_1" function="internal">
        <lane id=":junction_139_1_0" index="0" speed="13.89" length="29.96" width="3.66" shape="335.06,212.06 335.04,182.11"/>
    </edge>
    <edge id=":junction_139_2" function="internal">
        <lane id=":junction_139_2_0" index="0" speed="13.89" length="29.96" width="3.66" shape="346.02,182.10 346.04,212.06"/>
        <lane id=":junction_139_2_1" index="1" speed="13.89" length="29.96" width="3.66" shape="338.70,182.10 338.72,212.06"/>
    </edge>
    <edge id=":junction_139_4" function="internal">
        <lane id=":junction_139_4_0" index="0" speed="10.91" length="6.63" width="3.66" shape="338.70,182.10 337.76,188.66"/>
    </edge>
    <edge id=":junction_139_7" function="internal">
        <lane id=":junction_139_7_0" index="0" speed="10.91" length="20.48" width="3.66" shape="337.76,188.66 337.65,189.46 334.50,194.71 329.25,197.87 321.90,198.92"/>
    </edge>
    <edge id=":junction_139_5" function="internal">
        <lane id=":junction_139_5_0" index="0" speed="9.70" length="21.21" width="3.66" shape="321.90,195.26 327.65,194.44 331.76,191.97 334.22,187.86 335.04,182.11"/>
    </edge>
    <edge id=":junction_139_6" function="internal">
        <lane id=":junction_139_6_0" index="0" speed="12.03" length="33.23" width="3.66" shape="321.90,195.26 332.46,196.31 340.00,199.46 344.53,204.71 346.04,212.06"/>
    </edge>
    <edge id=":junction_156_0" function="internal">
        <lane id=":junction_156_0_0" index="0" speed="6.68" length="9.41" width="3.66" shape="105.44,206.35 102.89,206.71 101.06,207.81 99.96,209.63 99.60,212.18"/>
    </edge>
    <edge id=":junction_156_1" function="internal">
        <lane id=":junction_156_1_0" index="0" speed="12.02" length="33.23" width="3.66" shape="105.44,206.35 98.08,204.84 92.82,200.32 89.67,192.78 88.62,182.22"/>
    </edge>
    <edge id=":junction_156_2" function="internal">
        <lane id=":junction_156_2_0" index="0" speed="8.44" length="15.77" width="3.66" shape="99.60,182.22 99.96,187.97 101.06,192.08 102.88,194.55 105.43,195.37"/>
    </edge>
    <edge id=":junction_156_3" function="internal">
        <lane id=":junction_156_3_0" index="0" speed="13.89" length="29.96" width="3.66" shape="88.62,212.18 88.62,182.22"/>
    </edge>
    <edge id=":junction_156_4" function="internal">
        <lane id=":junction_156_4_0" index="0" speed="10.91" length="23.60" width="3.66" shape="88.62,212.18 89.67,204.83 92.82,199.57 98.08,196.42 101.96,195.87"/>
    </edge>
    <edge id=":junction_156_5" function="internal">
        <lane id=":junction_156_5_0" index="0" speed="10.91" length="3.51" width="3.66" shape="101.96,195.87 105.43,195.37"/>
    </edge>
    <edge id=":junction_167_0" function="internal">
        <lane id=":junction_167_0_0" index="0" speed="8.45" length="15.78" width="3.66" shape="154.26,286.12 153.43,283.56 150.96,281.73 146.85,280.64 141.10,280.27"/>
    </edge>
    <edge id=":junction_167_1" function="internal">
        <lane id=":junction_167_1_0" index="0" speed="10.90" length="27.13" width="3.66" shape="154.26,286.12 155.30,278.76 158.44,273.50 163.70,270.34 171.06,269.29"/>
    </edge>
    <edge id=":junction_167_2" function="internal">
        <lane id=":junction_167_2_0" index="0" speed="6.67" length="9.40" width="3.66" shape="171.06,280.27 168.51,280.63 166.69,281.73 165.60,283.55 165.24,286.10"/>
    </edge>
    <edge id=":junction_167_3" function="internal">
        <lane id=":junction_167_3_0" index="0" speed="13.89" length="29.96" width="3.66" shape="171.06,280.27 141.10,280.27"/>
        <lane id=":junction_167_3_1" index="1" speed="13.89" length="29.96" width="3.66" shape="171.06,272.95 141.10,272.95"/>
    </edge>
    <edge id=":junction_167_5" function="internal">
        <lane id=":junction_167_5_0" index="0" speed="13.89" length="29.96" width="3.66" shape="141.10,269.29 171.06,269.29"/>
    </edge>
    <edge id=":junction_167_6" function="internal">
        <lane id=":junction_167_6_0" index="0" speed="12.03" length="9.41" width="3.66" shape="141.10,269.29 150.47,270.22"/>
    </edge>
    <edge id=":junction_167_7" function="internal">
        <lane id=":junction_167_7_0" index="0" speed="12.03" length="23.80" width="3.66" shape="150.47,270.22 151.65,270.34 159.19,273.50 163.72,278.75 165.24,286.10"/>
    </edge>
    <edge id=":junction_184_0" function="internal">
        <lane id=":junction_184_0_0" index="0" speed="6.67" length="9.40" width="3.66" shape="105.42,280.26 102.87,280.62 101.05,281.72 99.95,283.54 99.59,286.09"/>
    </edge>
    <edge id=":junction_184_1" function="internal">
        <lane id=":junction_184_1_0" index="0" speed="12.03" length="33.23" width="3.66" shape="105.42,280.26 98.06,278.75 92.81,274.23 89.66,266.68 88.61,256.13"/>
    </edge>
    <edge id=":junction_184_2" function="internal">
        <lane id=":junction_184_2_0" index="0" speed="8.44" length="15.77" width="3.66" shape="99.59,256.13 99.95,261.88 101.05,265.99 102.87,268.46 105.42,269.28"/>
    </edge>
    <edge id=":junction_184_3" function="internal">
        <lane id=":junction_184_3_0" index="0" speed="10.91" length="23.60" width="3.66" shape="88.61,286.09 89.66,278.73 92.81,273.48 98.07,270.33 101.95,269.78"/>
    </edge>
    <edge id=":junction_184_4" function="internal">
        <lane id=":junction_184_4_0" index="0" speed="5.97" length="16.04" width="3.66" shape="88.61,286.09 91.36,281.97 94.10,280.60 96.85,281.97 99.59,286.09"/>
    </edge>
    <edge id=":junction_184_5" function="internal">
        <lane id=":junction_184_5_0" index="0" speed="10.91" length="3.51" width="3.66" shape="101.95,269.78 105.42,269.28"/>
    </edge>
    <edge id=":junction_195_0" function="internal">
        <lane id=":junction_195_0_0" index="0" speed="6.68" length="9.41" width="3.66" shape="105.46,9.17 102.91,9.54 101.09,10.63 99.99,12.46 99.63,15.01"/>
    </edge>
    <edge id=":junction_195_1" function="internal">
        <lane id=":junction_195_1_0" index="0" speed="13.89" length="29.96" width="3.66" shape="105.46,9.17 75.50,9.18"/>
        <lane id=":junction_195_1_1" index="1" speed="13.89" length="29.96" width="3.66" shape="105.46,1.85 75.49,1.86"/>
    </edge>
    <edge id=":junction_195_3" function="internal">
        <lane id=":junction_195_3_0" index="0" speed="13.89" length="29.97" width="3.66" shape="75.49,-1.80 105.46,-1.81"/>
    </edge>
    <edge id=":junction_195_4" function="internal">
        <lane id=":junction_195_4_0" index="0" speed="12.02" length="9.45" width="3.66" shape="75.49,-1.80 84.89,-0.87"/>
    </edge>
    <edge id=":junction_195_7" function="internal">
        <lane id=":junction_195_7_0" index="0" speed="12.02" length="23.79" width="3.66" shape="84.89,-0.87 86.05,-0.75 93.60,2.40 98.12,7.65 99.63,15.01"/>
    </edge>
    <edge id=":junction_195_5" function="internal">
        <lane id=":junction_195_5_0" index="0" speed="8.44" length="15.77" width="3.66" shape="88.65,15.01 87.83,12.46 85.36,10.64 81.25,9.54 75.50,9.18"/>
    </edge>
    <edge id=":junction_195_6" function="internal">
        <lane id=":junction_195_6_0" index="0" speed="10.91" length="27.12" width="3.66" shape="88.65,15.01 89.70,7.65 92.85,2.40 98.11,-0.76 105.46,-1.81"/>
    </edge>
    <edge id=":junction_26_0" function="internal">
        <lane id=":junction_26_0_0" index="0" speed="13.89" length="29.96" width="3.66" shape="171.11,330.48 141.15,330.49"/>
    </edge>
    <edge id=":junction_26_1" function="internal">
        <lane id=":junction_26_1_0" index="0" speed="5.97" length="16.04" width="3.66" shape="171.11,330.48 166.99,327.74 165.62,324.99 166.99,322.25 171.11,319.50"/>
    </edge>
    <edge id=":junction_26_2" function="internal">
        <lane id=":junction_26_2_0" index="0" speed="12.02" length="33.25" width="3.66" shape="165.27,313.65 163.78,321.02 159.25,326.28 151.71,329.44 141.15,330.49"/>
    </edge>
    <edge id=":junction_26_3" function="internal">
        <lane id=":junction_26_3_0" index="0" speed="8.44" length="15.77" width="3.66" shape="141.15,319.51 146.90,319.14 151.01,318.05 153.48,316.22 154.29,313.67"/>
    </edge>
    <edge id=":junction_43_0" function="internal">
        <lane id=":junction_43_0_0" index="0" speed="5.97" length="16.04" width="3.66" shape="351.94,330.44 347.82,327.70 346.44,324.95 347.81,322.21 351.93,319.46"/>
    </edge>
    <edge id=":junction_43_1" function="internal">
        <lane id=":junction_43_1_0" index="0" speed="12.03" length="33.22" width="3.66" shape="346.10,313.63 344.59,320.98 340.07,326.24 332.53,329.40 321.98,330.45"/>
    </edge>
    <edge id=":junction_43_2" function="internal">
        <lane id=":junction_43_2_0" index="0" speed="8.44" length="15.76" width="3.66" shape="321.97,319.47 327.72,319.10 331.83,318.01 334.30,316.19 335.12,313.63"/>
    </edge>
    <edge id=":junction_60_0" function="internal">
        <lane id=":junction_60_0_0" index="0" speed="10.91" length="27.12" width="3.66" shape="334.94,14.99 335.99,7.63 339.14,2.37 344.39,-0.78 351.75,-1.83"/>
    </edge>
    <edge id=":junction_60_1" function="internal">
        <lane id=":junction_60_1_0" index="0" speed="6.67" length="9.40" width="3.66" shape="351.75,9.15 349.20,9.51 347.38,10.61 346.29,12.43 345.92,14.98"/>
    </edge>
    <edge id=":junction_60_2" function="internal">
        <lane id=":junction_60_2_0" index="0" speed="5.97" length="16.04" width="3.66" shape="321.79,-1.83 325.91,0.91 327.28,3.66 325.91,6.40 321.79,9.15"/>
    </edge>
    <edge id=":junction_77_0" function="internal">
        <lane id=":junction_77_0_0" index="0" speed="13.89" length="29.96" width="3.66" shape="105.41,330.49 75.45,330.48"/>
    </edge>
    <edge id=":junction_77_1" function="internal">
        <lane id=":junction_77_1_0" index="0" speed="10.91" length="23.61" width="3.66" shape="105.41,330.49 98.05,329.44 92.80,326.29 89.65,321.03 89.10,317.14"/>
    </edge>
    <edge id=":junction_77_4" function="internal">
        <lane id=":junction_77_4_0" index="0" speed="10.91" length="3.51" width="3.66" shape="89.10,317.14 88.60,313.67"/>
    </edge>
    <edge id=":junction_77_2" function="internal">
        <lane id=":junction_77_2_0" index="0" speed="12.03" length="33.22" width="3.66" shape="99.58,313.68 98.07,321.03 93.55,326.28 86.00,329.43 75.45,330.48"/>
    </edge>
    <edge id=":junction_77_3" function="internal">
        <lane id=":junction_77_3_0" index="0" speed="8.44" length="15.76" width="3.66" shape="75.45,319.50 81.20,319.14 85.31,318.04 87.78,316.22 88.60,313.67"/>
    </edge>
    <edge id=":junction_94_0" function="internal">
        <lane id=":junction_94_0_0" index="0" speed="8.45" length="15.78" width="3.66" shape="335.02,146.43 334.20,143.88 331.73,142.06 327.61,140.96 321.85,140.60"/>
    </edge>
    <edge id=":junction_94_1" function="internal">
        <lane id=":junction_94_1_0" index="0" speed="5.97" length="1.95" width="3.66" shape="335.02,146.43 336.10,144.80"/>
    </edge>
    <edge id=":junction_94_7" function="internal">
        <lane id=":junction_94_7_0" index="0" speed="5.97" length="14.09" width="3.66" shape="336.10,144.80 337.76,142.31 340.51,140.93 343.25,142.30 346.00,146.42"/>
    </edge>
    <edge id=":junction_94_2" function="internal">
        <lane id=":junction_94_2_0" index="0" speed="13.89" length="29.96" width="3.66" shape="345.98,116.46 346.00,146.42"/>
        <lane id=":junction_94_2_1" index="1" speed="13.89" length="29.96" width="3.66" shape="338.66,116.46 338.68,146.42"/>
    </edge>
    <edge id=":junction_94_4" function="internal">
        <lane id=":junction_94_4_0" index="0" speed="10.91" length="27.12" width="3.66" shape="338.66,116.46 337.61,123.82 334.46,129.08 329.21,132.23 321.85,133.28"/>
    </edge>
    <edge id=":junction_94_5" function="internal">
        <lane id=":junction_94_5_0" index="0" speed="9.70" length="21.21" width="3.66" shape="321.85,129.62 327.61,128.80 331.72,126.33 334.18,122.22 335.00,116.46"/>
    </edge>
    <edge id=":junction_94_6" function="internal">
        <lane id=":junction_94_6_0" index="0" speed="12.03" length="33.23" width="3.66" shape="321.85,129.62 332.41,130.67 339.96,133.82 344.49,139.07 346.00,146.42"/>
    </edge>
    <edge id=":node_0_start_0" function="internal">
        <lane id=":node_0_start_0_0" index="0" speed="13.89" length="8.11" width="3.66" shape="392.29,335.73 389.67,336.82 387.80,337.43 385.86,337.69 383.03,337.74"/>
        <lane id=":node_0_start_0_1" index="1" speed="13.89" length="8.11" width="3.66" shape="389.43,328.99 387.62,329.75 386.33,330.18 384.99,330.38 383.03,330.42"/>
    </edge>
    <edge id=":node_0_start_2" function="internal">
        <lane id=":node_0_start_2_0" index="0" speed="3.49" length="4.44" width="3.66" shape="383.02,319.44 383.87,319.44 384.77,319.44 385.73,319.44 386.75,319.44"/>
        <lane id=":node_0_start_2_1" index="1" speed="13.89" length="4.44" width="3.66" shape="383.03,326.76 384.55,326.72 385.59,326.56 386.59,326.22 388.00,325.62"/>
    </edge>
    <edge id=":node_11_end_0" function="internal">
        <lane id=":node_11_end_0_0" index="0" speed="3.85" length="5.97" width="3.66" shape="384.21,319.44 384.68,319.33 385.02,319.00 385.22,318.44 385.29,317.67"/>
        <lane id=":node_11_end_0_1" index="1" speed="7.95" length="5.97" width="3.66" shape="388.18,325.54 390.12,324.34 391.51,322.63 392.33,320.40 392.61,317.66"/>
    </edge>
    <edge id=":node_11_end_2" function="internal">
        <lane id=":node_11_end_2_0" index="0" speed="11.89" length="18.23" width="3.66" shape="403.59,317.65 402.90,323.75 400.82,328.78 397.34,332.75 392.47,335.65"/>
        <lane id=":node_11_end_2_1" index="1" speed="9.45" length="18.23" width="3.66" shape="396.27,317.66 395.86,321.52 394.61,324.68 392.53,327.15 389.61,328.91"/>
    </edge>
    <edge id=":node_13_end_0" function="internal">
        <lane id=":node_13_end_0_0" index="0" speed="13.89" length="5.96" width="3.66" shape="11.09,337.78 8.93,337.75 7.46,337.57 6.02,337.16 4.00,336.41"/>
        <lane id=":node_13_end_0_1" index="1" speed="13.89" length="5.96" width="3.66" shape="11.09,330.46 9.72,330.43 8.78,330.32 7.87,330.05 6.59,329.56"/>
    </edge>
    <edge id=":node_13_end_2" function="internal">
        <lane id=":node_13_end_2_0" index="0" speed="13.89" length="1.98" width="3.66" shape="10.47,319.29 10.65,319.37 10.77,319.43 10.90,319.47 11.09,319.48"/>
        <lane id=":node_13_end_2_1" index="1" speed="13.72" length="1.98" width="3.66" shape="7.88,326.14 8.80,326.49 9.45,326.69 10.11,326.78 11.09,326.80"/>
    </edge>
    <edge id=":node_13_start_0" function="internal">
        <lane id=":node_13_start_0_0" index="0" speed="13.89" length="8.10" width="3.66" shape="-7.09,326.50 -8.23,323.88 -8.84,322.00 -9.08,320.04 -9.12,317.19"/>
        <lane id=":node_13_start_0_1" index="1" speed="13.89" length="8.10" width="3.66" shape="-0.42,323.48 -1.19,321.71 -1.61,320.44 -1.77,319.11 -1.80,317.18"/>
    </edge>
    <edge id=":node_13_start_2" function="internal">
        <lane id=":node_13_start_2_0" index="0" speed="4.10" length="3.50" width="3.66" shape="9.18,317.18 9.12,317.80 9.06,318.29 9.16,318.67 9.59,318.96"/>
        <lane id=":node_13_start_2_1" index="1" speed="13.18" length="3.50" width="3.66" shape="1.86,317.18 1.88,318.65 2.01,319.66 2.33,320.63 2.92,321.98"/>
    </edge>
    <edge id=":node_14_end_0" function="internal">
        <lane id=":node_14_end_0_0" index="0" speed="13.89" length="1.97" width="3.66" shape="384.12,9.52 383.57,9.15"/>
        <lane id=":node_14_end_0_1" index="1" speed="13.72" length="1.97" width="3.66" shape="386.70,2.67 385.80,2.30 385.17,2.03 384.53,1.88 383.57,1.83"/>
    </edge>
    <edge id=":node_14_end_2" function="internal">
        <lane id=":node_14_end_2_0" index="0" speed="13.89" length="5.92" width="3.66" shape="383.57,-9.15 385.70,-9.09 387.16,-8.85 388.56,-8.38 390.57,-7.61"/>
        <lane id=":node_14_end_2_1" index="1" speed="13.89" length="5.92" width="3.66" shape="383.57,-1.83 384.92,-1.78 385.84,-1.59 386.72,-1.26 387.99,-0.76"/>
    </edge>
    <edge id=":node_14_start_0" function="internal">
        <lane id=":node_14_start_0_0" index="0" speed="13.89" length="6.00" width="3.66" shape="403.56,17.23 403.56,11.23"/>
        <lane id=":node_14_start_0_1" index="1" speed="13.89" length="6.00" width="3.66" shape="396.24,17.23 396.24,11.23"/>
    </edge>
    <edge id=":node_14_start_2" function="internal">
        <lane id=":node_14_start_2_0" index="0" speed="2.79" length="3.73" width="3.66" shape="385.26,11.23 385.26,10.72 385.26,10.21 385.26,9.93 385.26,10.07"/>
        <lane id=":node_14_start_2_1" index="1" speed="13.89" length="3.73" width="3.66" shape="392.58,11.23 392.58,17.23"/>
    </edge>
    <edge id=":node_15_end_0" function="internal">
        <lane id=":node_15_end_0_0" index="0" speed="13.89" length="5.52" width="3.66" shape="-9.08,11.01 -8.99,9.02 -8.70,7.68 -8.20,6.38 -7.47,4.50"/>
        <lane id=":node_15_end_0_1" index="1" speed="13.89" length="5.52" width="3.66" shape="-1.76,11.01 -1.67,9.77 -1.43,8.94 -1.06,8.13 -0.58,6.96"/>
    </edge>
    <edge id=":node_15_end_2" function="internal">
        <lane id=":node_15_end_2_0" index="0" speed="13.89" length="1.84" width="3.66" shape="9.77,10.64 9.22,11.01"/>
        <lane id=":node_15_end_2_1" index="1" speed="13.89" length="1.84" width="3.66" shape="2.87,8.19 2.51,9.01 2.20,9.57 1.98,10.14 1.90,11.01"/>
    </edge>
    <edge id=":node_20_start_0" function="internal">
        <lane id=":node_20_start_0_0" index="0" speed="2.97" length="2.28" width="3.66" shape="11.67,9.22 10.97,9.22 10.27,9.22 9.87,9.22 10.07,9.22"/>
        <lane id=":node_20_start_0_1" index="1" speed="13.89" length="2.28" width="3.66" shape="11.66,1.90 14.22,1.90"/>
    </edge>
    <edge id=":node_20_start_2" function="internal">
        <lane id=":node_20_start_2_0" index="0" speed="13.89" length="2.56" width="3.66" shape="14.22,-9.08 11.66,-9.08"/>
        <lane id=":node_20_start_2_1" index="1" speed="13.89" length="2.56" width="3.66" shape="14.22,-1.76 11.66,-1.76"/>
    </edge>

    <edge id="0.0" from="node_0_start" to="junction_43" name="Road 0" priority="-1" type="town" shape="384.65,328.59 348.29,328.61">
        <lane id="0.0_0" index="0" speed="13.89" length="31.09" width="3.66" shape="383.03,337.74 351.94,337.76"/>
        <lane id="0.0_1" index="1" disallow="all" speed="13.89" length="31.09" width="3.66" shape="383.03,334.08 351.94,334.10" type="shoulder"/>
        <lane id="0.0_2" index="2" speed="13.89" length="31.09" width="3.66" shape="383.03,330.42 351.94,330.44"/>
    </edge>
    <edge id="0.1" from="junction_43" to="node_0_start" name="Road 0" priority="-1" type="town" shape="348.29,328.61 384.65,328.59">
        <lane id="0.1_0" index="0" speed="13.89" length="31.09" width="3.66" shape="351.93,319.46 383.02,319.44"/>
        <lane id="0.1_1" index="1" disallow="all" speed="13.89" length="31.09" width="3.66" shape="351.93,323.12 383.03,323.10" type="shoulder"/>
        <lane id="0.1_2" index="2" speed="13.89" length="31.09" width="3.66" shape="351.93,326.78 383.03,326.76"/>
    </edge>
    <edge id="1.0" from="junction_43" to="junction_26" name="Road 1" priority="-1" type="town" shape="325.69,328.62 290.64,328.64 290.14,328.64 196.83,328.65 168.14,328.65">
        <lane id="1.0_0" index="0" speed="13.89" length="150.87" width="3.66" shape="321.98,337.77 290.65,337.79 290.14,337.79 196.83,337.80 171.11,337.80"/>
        <lane id="1.0_1" index="1" disallow="all" speed="13.89" length="150.87" width="3.66" shape="321.98,334.11 290.64,334.13 290.14,334.13 196.83,334.14 171.11,334.14" type="shoulder"/>
        <lane id="1.0_2" index="2" speed="13.89" length="150.87" width="3.66" shape="321.98,330.45 290.64,330.47 290.14,330.47 196.83,330.48 171.11,330.48"/>
    </edge>
    <edge id="1.1" from="junction_26" to="junction_43" name="Road 1" priority="-1" type="town" shape="168.14,328.65 196.83,328.65 290.14,328.64 290.64,328.64 325.69,328.62">
        <lane id="1.1_0" index="0" speed="13.89" length="150.86" width="3.66" shape="171.11,319.50 196.83,319.50 290.14,319.49 290.63,319.49 321.97,319.47"/>
        <lane id="1.1_1" index="1" disallow="all" speed="13.89" length="150.86" width="3.66" shape="171.11,323.16 196.83,323.16 290.14,323.15 290.64,323.15 321.97,323.13" type="shoulder"/>
        <lane id="1.1_2" index="2" speed="13.89" length="150.86" width="3.66" shape="171.11,326.82 196.83,326.82 290.14,326.81 290.64,326.81 321.98,326.79"/>
    </edge>
    <edge id="10.0" from="junction_167" to="junction_111" name="Road 10" priority="-1" type="town" shape="167.23,271.12 325.69,271.14">
        <lane id="10.0_0" index="0" speed="13.89" length="150.88" width="3.66" shape="171.06,261.97 321.94,261.99"/>
        <lane id="10.0_1" index="1" disallow="all" speed="13.89" length="150.88" width="3.66" shape="171.06,265.63 321.94,265.65" type="shoulder"/>
        <lane id="10.0_2" index="2" speed="13.89" length="150.88" width="3.66" shape="171.06,269.29 321.94,269.31"/>
    </edge>
    <edge id="10.1" from="junction_111" to="junction_167" name="Road 10" priority="-1" type="town" shape="325.69,271.14 167.23,271.12">
        <lane id="10.1_0" index="0" speed="13.89" length="150.88" width="3.66" shape="321.94,280.29 171.06,280.27"/>
        <lane id="10.1_1" index="1" disallow="all" speed="13.89" length="150.88" width="3.66" shape="321.94,276.63 171.06,276.61" type="shoulder"/>
        <lane id="10.1_2" index="2" speed="13.89" length="150.88" width="3.66" shape="321.94,272.97 171.06,272.95"/>
    </edge>
    <edge id="11.0" from="node_0_start" to="node_11_end" name="Road 11" priority="-1" type="town" shape="384.65,328.59 385.68,328.59 391.90,325.95 394.44,319.64 394.44,318.76">
        <lane id="11.0_0" index="0" speed="13.89" length="0.98" width="3.66" shape="386.75,319.44 384.21,319.44"/>
        <lane id="11.0_1" index="1" disallow="all" speed="13.89" length="0.98" width="3.66" shape="387.05,323.31 387.12,323.12" type="shoulder"/>
        <lane id="11.0_2" index="2" speed="13.89" length="0.98" width="3.66" shape="388.00,325.62 388.18,325.54"/>
    </edge>
    <edge id="11.1" from="node_11_end" to="node_0_start" name="Road 11" priority="-1" type="town" shape="394.44,318.76 394.44,319.64 391.90,325.95 385.68,328.59 384.65,328.59">
        <lane id="11.1_0" index="0" speed="13.89" length="0.20" width="3.66" shape="392.47,335.65 392.29,335.73"/>
        <lane id="11.1_1" index="1" disallow="all" speed="13.89" length="0.20" width="3.66" shape="391.04,332.28 390.86,332.36" type="shoulder"/>
        <lane id="11.1_2" index="2" speed="13.89" length="0.20" width="3.66" shape="389.61,328.91 389.43,328.99"/>
    </edge>
    <edge id="12.0" from="junction_128" to="junction_94" name="Road 12" priority="-1" type="town" shape="101.48,131.47 325.73,131.45">
        <lane id="12.0_0" index="0" speed="13.89" length="216.41" width="3.66" shape="105.44,122.32 321.85,122.30"/>
        <lane id="12.0_1" index="1" disallow="all" speed="13.89" length="216.41" width="3.66" shape="105.44,125.98 321.85,125.96" type="shoulder"/>
        <lane id="12.0_2" index="2" speed="13.89" length="216.41" width="3.66" shape="105.44,129.64 321.85,129.62"/>
    </edge>
    <edge id="12.1" from="junction_94" to="junction_128" name="Road 12" priority="-1" type="town" shape="325.73,131.45 101.48,131.47">
        <lane id="12.1_0" index="0" speed="13.89" length="216.41" width="3.66" shape="321.85,140.60 105.44,140.62"/>
        <lane id="12.1_1" index="1" disallow="all" speed="13.89" length="216.41" width="3.66" shape="321.85,136.94 105.44,136.96" type="shoulder"/>
        <lane id="12.1_2" index="2" speed="13.89" length="216.41" width="3.66" shape="321.85,133.28 105.44,133.30"/>
    </edge>
    <edge id="13.0" from="node_13_start" to="node_13_end" name="Road 13" priority="-1" type="town" shape="0.03,318.65 0.03,320.03 2.81,326.18 9.29,328.63 11.09,328.63">
        <lane id="13.0_0" index="0" speed="13.89" length="3.97" width="3.66" shape="9.59,318.96 10.47,319.29"/>
        <lane id="13.0_1" index="1" disallow="all" speed="13.89" length="3.97" width="3.66" shape="6.25,320.47 6.88,321.85 9.18,322.72" type="shoulder"/>
        <lane id="13.0_2" index="2" speed="13.89" length="3.97" width="3.66" shape="2.92,321.98 4.17,324.74 7.88,326.14"/>
    </edge>
    <edge id="13.1" from="node_13_end" to="node_13_start" name="Road 13" priority="-1" type="town" shape="11.09,328.63 9.29,328.63 2.81,326.18 0.03,320.03 0.03,318.65">
        <lane id="13.1_0" index="0" speed="13.89" length="13.06" width="3.66" shape="4.00,336.41 -3.97,333.40 -7.09,326.50"/>
        <lane id="13.1_1" index="1" disallow="all" speed="13.89" length="13.06" width="3.66" shape="5.29,332.99 -1.26,330.51 -3.75,324.99" type="shoulder"/>