<?xml version='1.0' encoding='utf-8'?>
<connections>
    <connection from="10.0" to="10.1" fromLane="2" toLane="0" />
    <connection from="16.0" to="16.1" fromLane="2" toLane="0" />
    <connection from="10.0" to="16.1" fromLane="2" toLane="0" />
    <connection from="16.0" to="10.1" fromLane="2" toLane="0" />
    <connection from="24.1" to="12.0" fromLane="0" toLane="2" />
    <connection from="12.1" to="24.0" fromLane="0" toLane="2" />
    <connection from="23.0" to="23.1" fromLane="2" toLane="0" />
    <connection from="12.1" to="23.1" fromLane="0" toLane="0" />
    <connection from="23.0" to="12.0" fromLane="2" toLane="2" />
    <connection from="17.0" to="4.1" fromLane="2" toLane="0" />
    <connection from="4.0" to="17.1" fromLane="2" toLane="0" />
    <connection from="17.0" to="18.0" fromLane="2" toLane="2" />
    <connection from="4.0" to="18.0" fromLane="2" toLane="2" />
    <connection from="4.1" to="22.1" fromLane="0" toLane="0" />
    <connection from="22.0" to="4.0" fromLane="2" toLane="2" />
    <connection from="4.1" to="23.0" fromLane="0" toLane="2" />
    <connection from="23.1" to="4.0" fromLane="0" toLane="2" />
    <connection from="22.0" to="23.0" fromLane="2" toLane="2" />
    <connection from="25.0" to="9.1" fromLane="2" toLane="0" />
    <connection from="9.0" to="25.1" fromLane="2" toLane="0" />
    <connection from="25.0" to="10.0" fromLane="2" toLane="2" />
    <connection from="9.0" to="10.0" fromLane="2" toLane="2" />
    <connection from="21.0" to="21.1" fromLane="2" toLane="0" />
    <connection from="22.1" to="9.0" fromLane="0" toLane="2" />
    <connection from="9.1" to="22.0" fromLane="0" toLane="2" />
    <connection from="21.0" to="9.0" fromLane="2" toLane="2" />
    <connection from="9.1" to="21.1" fromLane="0" toLane="0" />
    <connection from="24.0" to="5.1" fromLane="2" toLane="0" />
    <connection from="5.0" to="24.1" fromLane="2" toLane="0" />
    <connection from="24.0" to="6.0" fromLane="2" toLane="2" />
    <connection from="5.0" to="6.0" fromLane="2" toLane="2" />
    <connection from="1.0" to="1.1" fromLane="2" toLane="0" />
    <connection from="2.1" to="25.0" fromLane="0" toLane="2" />
    <connection from="25.1" to="2.0" fromLane="0" toLane="2" />
    <connection from="1.0" to="2.0" fromLane="2" toLane="2" />
    <connection from="1.1" to="16.0" fromLane="0" toLane="2" />
    <connection from="16.1" to="1.0" fromLane="0" toLane="2" />
    <connection from="0.0" to="0.1" fromLane="2" toLane="0" />
    <connection from="0.0" to="0.1" fromLane="2" toLane="0" />
    <connection from="7.1" to="19.1" fromLane="0" toLane="0" />
    <connection from="19.0" to="7.0" fromLane="2" toLane="2" />
    <connection from="6.0" to="6.1" fromLane="2" toLane="0" />
    <connection from="6.0" to="6.1" fromLane="2" toLane="0" />
    <connection from="2.0" to="3.0" fromLane="2" toLane="2" />
    <connection from="2.0" to="21.0" fromLane="2" toLane="2" />
    <connection from="3.1" to="21.0" fromLane="0" toLane="2" />
    <connection from="21.1" to="3.0" fromLane="0" toLane="2" />
    <connection from="12.0" to="19.0" fromLane="2" toLane="2" />
    <connection from="18.0" to="12.1" fromLane="2" toLane="0" />
    <connection from="12.0" to="18.1" fromLane="2" toLane="0" />
    <connection from="18.0" to="18.1" fromLane="2" toLane="0" />
</connections>