<?xml version='1.0' encoding='utf-8'?>
<edges>
    <location netOffset="-563887.05,-3258169.84" convBoundary="0.00,0.00,241516.53,40231.01" origBoundary="563887.05,3258169.84,805403.57,3298400.85" projParameter="+proj=utm +zone=14 +datum=WGS84 +units=m +no_defs" />
    <edge id="0.0" from="node_0_start" to="junction_57" numLanes="2" speed="13.89" type="town" shape="174337.71,29165.47 174333.87,29164.82 174333.87,29164.82 174324.01,29162.97 174324.01,29162.97 174317.28,29161.74 174317.28,29161.74 174308.37,29160.19 174308.37,29160.19 174302.00,29159.11 174302.00,29159.11 174291.25,29157.50 174291.25,29157.50 174275.50,29155.50 174275.50,29155.50 174254.38,29151.61 174254.38,29151.61 174243.35,29149.32 174243.35,29149.32 174236.63,29147.70 174236.63,29147.70 174229.50,29145.86 174229.50,29145.86 174222.53,29143.92 174222.53,29143.92 174215.24,29141.68">
        <lane index="0" width="3.66" type="shoulder" disallow="all" />
        <lane index="1" width="3.66" />
    </edge>
    <edge id="1.0" from="node_1_start" to="node_1_end" numLanes="5" speed="13.89" type="town" shape="226219.01,40015.65 226222.75,40016.78 226222.75,40016.78 226226.49,40017.91 226226.49,40017.91 226230.22,40019.04 226230.22,40019.04 226233.96,40020.17 226233.96,40020.17 226237.69,40021.30 226237.69,40021.30 226241.43,40022.43 226241.43,40022.43 226245.16,40023.56 226245.16,40023.56 226248.90,40024.69 226248.90,40024.69 226252.64,40025.82 226252.64,40025.82 226256.37,40026.95 226256.37,40026.95 226260.11,40028.07 226260.11,40028.07 226263.84,40029.20 226263.84,40029.20 226267.58,40030.33 226267.58,40030.33 226271.32,40031.46 226271.32,40031.46 226275.05,40032.59 226275.05,40032.59 226278.79,40033.72 226278.79,40033.72 226282.52,40034.85 226282.52,40034.85 226286.26,40035.97 226286.26,40035.97 226290.00,40037.10 226290.00,40037.10 226293.73,40038.23 226293.73,40038.23 226297.47,40039.36 226297.47,40039.36 226301.20,40040.49 226301.20,40040.49 226304.94,40041.61 226304.94,40041.61 226308.68,40042.74 226308.68,40042.74 226312.41,40043.87 226312.41,40043.87 226316.15,40045.00 226316.15,40045.00 226319.88,40046.12 226319.88,40046.12 226323.62,40047.25 226323.62,40047.25 226327.36,40048.38 226327.36,40048.38 226331.09,40049.51 226331.09,40049.51 226334.83,40050.63 226334.83,40050.63 226338.57,40051.76 226338.57,40051.76 226342.30,40052.89 226342.30,40052.89 226346.04,40054.01 226346.04,40054.01 226349.78,40055.14 226349.78,40055.14 226353.51,40056.27 226353.51,40056.27 226357.25,40057.39 226357.25,40057.39 226360.98,40058.52 226360.98,40058.52 226364.72,40059.65 226364.72,40059.65 226368.46,40060.78 226368.46,40060.78 226372.19,40061.90 226372.19,40061.90 226375.93,40063.03 226375.93,40063.03 226379.67,40064.16 226379.67,40064.16 226383.40,40065.28 226383.40,40065.28 226387.14,40066.41">
        <lane index="0" width="3.66" type="shoulder" disallow="all" />
        <lane index="1" width="3.66" />
        <lane index="2" width="3.66" />
        <lane index="3" width="3.66" />
        <lane index="4" width="3.66" type="shoulder" disallow="all" />
    </edge>
    <edge id="10.0" from="j_merge_end_3" to="junction_59" numLanes="5" speed="13.89" type="town" shape="234807.07,39933.44 234825.95,39934.33 234825.95,39934.33 235179.75,39945.05">
        <lane index="0" width="3.66" type="shoulder" disallow="all" />
        <lane index="1" width="3.66" />
        <lane index="2" width="3.66" />
        <lane index="3" width="3.66" />
        <lane index="4" width="3.66" type="shoulder" disallow="all" />
    </edge>
    <edge id="100.0" from="node_100_start" to="node_100_end" numLanes="5" speed="13.89" type="town" shape="545.62,200.80 552.61,203.39">
        <lane index="0" width="3.66" type="shoulder" disallow="all" />
        <lane index="1" width="3.66" />
        <lane index="2" width="3.66" />
        <lane index="3" width="3.66" />
        <lane index="4" width="3.66" type="shoulder" disallow="all" />
    </edge>
    <edge id="103.0" from="node_103_start" to="j_merge_start_8" numLanes="1" speed="13.89" type="town" shape="1486.22,520.59 1495.00,524.06 1495.00,524.06 1509.06,529.61 1509.06,529.61 1527.29,536.71 1527.29,536.71 1544.99,543.66 1544.99,543.66 1560.88,549.84 1560.88,549.84 1578.08,556.42 1578.08,556.42 1596.45,563.17 1596.45,563.17 1603.66,565.82">
        <lane index="0" width="3.66" />
    </edge>
    <edge id="104.0" from="node_104_start" to="node_104_end" numLanes="3" speed="13.89" type="town" shape="5881.78,1994.72 5913.43,2006.73 5913.43,2006.73 5957.93,2023.45 5957.93,2023.45 6031.97,2051.33 6031.97,2051.33 6103.00,2078.02 6103.00,2078.02 6192.60,2111.79 6192.60,2111.79 6239.96,2129.68">
        <lane index="0" width="3.66" />
        <lane index="1" width="3.66" />
        <lane index="2" width="3.66" />
    </edge>
    <edge id="105.0" from="node_105_start" to="node_104_start" numLanes="3" speed="13.89" type="town" shape="5768.96,1952.27 5797.78,1963.24 5797.78,1963.24 5856.97,1985.66 5856.97,1985.66 5881.78,1994.72">
        <lane index="0" width="3.66" />
        <lane index="1" width="3.66" />
        <lane index="2" width="3.66" />
    </edge>
    <edge id="106.0" from="node_106_start" to="node_106_end" numLanes="2" speed="13.89" type="town" shape="9004.38,3193.60 9023.59,3201.32 9023.59,3201.32 9058.45,3214.96 9058.45,3214.96 9108.40,3234.78 9108.40,3234.78 9154.01,3252.93 9154.01,3252.93 9188.49,3266.63 9188.49,3266.63 9223.07,3280.39 9223.07,3280.39 9263.19,3296.33 9263.19,3296.33 9301.69,3311.64 9301.69,3311.64 9335.61,3325.14 9335.61,3325.14 9369.53,3338.59 9369.53,3338.59 9396.93,3349.34 9396.93,3349.34 9424.00,3360.25 9424.00,3360.25 9455.33,3372.58 9455.33,3372.58 9493.66,3387.83 9493.66,3387.83 9529.17,3401.98 9529.17,3401.98 9561.97,3414.81 9561.97,3414.81 9588.27,3425.39 9588.27,3425.39 9616.14,3436.38 9616.14,3436.38 9646.24,3448.29 9646.24,3448.29 9681.34,3462.31 9681.34,3462.31 9709.31,3473.42 9709.31,3473.42 9743.57,3487.06 9743.57,3487.06 9771.13,3497.94 9771.13,3497.94 9804.51,3511.25 9804.51,3511.25 9827.93,3520.52 9827.93,3520.52 9861.64,3533.92 9861.64,3533.92 9897.48,3548.13 9897.48,3548.13 9932.05,3561.78 9932.05,3561.78 9960.45,3573.02 9960.45,3573.02 9998.34,3588.21 9998.34,3588.21 10027.32,3599.71 10027.32,3599.71 10069.93,3616.65 10069.93,3616.65 10108.21,3631.76 10108.21,3631.76 10140.66,3644.68 10140.66,3644.68 10184.02,3661.87 10184.02,3661.87 10199.24,3668.04 10199.24,3668.04 10219.68,3676.27">
        <lane index="0" width="3.66" />
        <lane index="1" width="3.66" />
    </edge>
    <edge id="107.0" from="node_107_start" to="node_107_end" numLanes="2" speed="13.89" type="town" shape="10557.54,3810.24 10577.52,3818.14 10577.52,3818.14 10591.00,3823.39 10591.00,3823.39 10604.20,3828.70 10604.20,3828.70 10625.84,3837.33 10625.84,3837.33 10643.39,3844.24 10643.39,3844.24 10657.28,3849.85 10657.28,3849.85 10682.10,3859.73 10682.10,3859.73 10702.14,3867.68 10702.14,3867.68 10724.68,3876.48 10724.68,3876.48 10744.17,3884.29 10744.17,3884.29 10765.85,3892.79 10765.85,3892.79 10783.17,3899.78 10783.17,3899.78 10807.24,3909.20 10807.24,3909.20 10830.30,3918.34 10830.30,3918.34 10855.64,3928.44 10855.64,3928.44 10878.69,3937.55 10878.69,3937.55 10907.71,3949.13 10907.71,3949.13 10934.97,3959.92 10934.97,3959.92 10961.26,3970.34 10961.26,3970.34 10978.38,3977.22 10978.38,3977.22 11001.01,3986.09 11001.01,3986.09 11023.35,3995.04 11023.35,3995.04 11040.60,4001.84 11040.60,4001.84 11061.15,4009.89 11061.15,4009.89 11078.24,4016.78 11078.24,4016.78 11097.65,4024.46 11097.65,4024.46 11122.35,4034.19 11122.35,4034.19 11144.44,4043.10 11144.44,4043.10 11166.48,4051.90 11166.48,4051.90 11185.78,4059.50 11185.78,4059.50 11202.34,4066.18 11202.34,4066.18 11234.35,4078.74 11234.35,4078.74 11265.24,4090.93 11265.24,4090.93 11301.48,4105.11 11301.48,4105.11 11329.40,4115.68 11329.40,4115.68 11359.51,4127.39 11359.51,4127.39 11383.25,4136.97 11383.25,4136.97 11402.82,4144.70 11402.82,4144.70 11423.07,4153.08 11423.07,4153.08 11442.78,4161.05 11442.78,4161.05 11460.92,4168.73 11460.92,4168.73 11479.45,4176.09 11479.45,4176.09 11503.39,4185.60 11503.39,4185.60 11532.24,4196.97 11532.24,4196.97 11559.68,4207.84 11559.68,4207.84 11583.13,4217.22 11583.13,4217.22 11614.55,4229.49 11614.55,4229.49 11635.71,4237.90 11635.71,4237.90 11658.39,4246.90">
        <lane index="0" width="3.66" />
        <lane index="1" width="3.66" />
    </edge>
    <edge id="108.0" from="node_108_start" to="node_106_start" numLanes="2" speed="13.89" type="town" shape="8709.39,3076.58 8727.86,3083.72 8727.86,3083.72 8756.94,3095.30 8756.94,3095.30 8791.91,3109.31 8791.91,3109.31 8818.93,3119.98 8818.93,3119.98 8855.15,3134.27 8855.15,3134.27 8890.25,3148.34 8890.25,3148.34 8922.77,3161.26 8922.77,3161.26 8950.90,3172.44 8950.90,3172.44 8982.22,3184.89 8982.22,3184.89 9004.38,3193.60">
        <lane index="0" width="3.66" />
        <lane index="1" width="3.66" />
    </edge>
    <edge id="109.0" from="node_109_start" to="node_109_end" numLanes="1" speed="13.89" type="town" shape="10522.19,3766.46 10548.51,3772.85 10548.51,3772.85 10559.35,3775.97 10559.35,3775.97 10570.17,3778.92 10570.17,3778.92 10576.46,3781.17 10576.46,3781.17 10586.75,3785.09">
        <lane index="0" width="3.66" />
    </edge>
    <edge id="110.0" from="node_110_start" to="node_110_end" numLanes="2" speed="13.89" type="town" shape="15458.97,5817.44 15483.31,5827.51 15483.31,5827.51 15499.34,5834.45 15499.34,5834.45 15514.78,5841.25 15514.78,5841.25 15532.68,5849.21">
        <lane index="0" width="3.66" />
        <lane index="1" width="3.66" />
    </edge>
    <edge id="111.0" from="node_111_start" to="j_merge_start_48" numLanes="3" speed="13.89" type="town" shape="15630.09,5896.19 15651.07,5905.49 15651.07,5905.49 15672.06,5914.79">
        <lane index="0" width="3.66" />
        <lane index="1" width="3.66" />
        <lane index="2" width="3.66" />
    </edge>
    <edge id="112.0" from="node_112_start" to="node_112_end" numLanes="2" speed="13.89" type="town" shape="13428.29,4949.50 13450.99,4958.73 13450.99,4958.73 13469.79,4966.06 13469.79,4966.06 13480.62,4970.37">
        <lane index="0" width="3.66" />
        <lane index="1" width="3.66" />
    </edge>
    <edge id="113.0" from="node_113_start" to="node_113_end" numLanes="2" speed="13.89" type="town" shape="14647.55,5466.37 14672.29,5477.17 14672.29,5477.17 14681.66,5481.28 14681.66,5481.28 14694.30,5486.78">
        <lane index="0" width="3.66" />
        <lane index="1" width="3.66" />
    </edge>
    <edge id="114.0" from="node_114_start" to="node_112_start" numLanes="2" speed="13.89" type="town" shape="13357.15,4921.12 13371.15,4927.00 13371.15,4927.00 13393.68,4935.89 13393.68,4935.89 13428.29,4949.50">
        <lane index="0" width="3.66" />
        <lane index="1" width="3.66" />
    </edge>
    <edge id="115.0" from="node_115_start" to="node_115_end" numLanes="2" speed="13.89" type="town" shape="13689.98,5053.46 13709.55,5061.36 13709.55,5061.36 13745.70,5075.68 13745.70,5075.68 13781.41,5089.90 13781.41,5089.90 13819.04,5104.67 13819.04,5104.67 13853.17,5118.52 13853.17,5118.52 13887.36,5132.44 13887.36,5132.44 13928.63,5149.77 13928.63,5149.77 13967.16,5166.23 13967.16,5166.23 14001.19,5181.18 14001.19,5181.18 14045.30,5200.09 14045.30,5200.09 14084.99,5217.36 14084.99,5217.36 14129.78,5237.19 14129.78,5237.19 14160.90,5251.49 14160.90,5251.49 14217.72,5276.65 14217.72,5276.65 14273.47,5301.24 14273.47,5301.24 14325.41,5324.04 14325.41,5324.04 14393.75,5354.22">
        <lane index="0" width="3.66" />
        <lane index="1" width="3.66" />
    </edge>
    <edge id="116.0" from="node_112_end" to="node_115_start" numLanes="2" speed="13.89" type="town" shape="13480.62,4970.37 13506.92,4980.89 13506.92,4980.89 13565.00,5003.84 13565.00,5003.84 13598.89,5017.23 13598.89,5017.23 13626.32,5028.07 13626.32,5028.07 13663.85,5043.06 13663.85,5043.06 13683.32,5050.83 13683.32,5050.83 13689.98,5053.46">
        <lane index="0" width="3.66" />
        <lane index="1" width="3.66" />
    </edge>
    <edge id="117.0" from="node_115_end" to="node_113_start" numLanes="2" speed="13.89" type="town" shape="14393.75,5354.22 14423.22,5367.19 14423.22,5367.19 14450.41,5379.31 14450.41,5379.31 14495.19,5399.01 14495.19,5399.01 14558.86,5427.07 14558.86,5427.07 14582.92,5437.65 14582.92,5437.65 14594.33,5442.77 14594.33,5442.77 14606.20,5447.90 14606.20,5447.90 14626.61,5457.01 14626.61,5457.01 14637.04,5461.72 14637.04,5461.72 14647.55,5466.37">
        <lane index="0" width="3.66" />
        <lane index="1" width="3.66" />
    </edge>
    <edge id="119.0" from="junction_108" to="junction_9" numLanes="3" speed="13.89" type="town" shape="21941.08,8672.71 21946.30,8675.01 21946.30,8675.01 21960.69,8681.35 21960.69,8681.35 21977.64,8688.84 21977.64,8688.84 21987.81,8693.37 21987.81,8693.37 22006.02,8701.43 22006.02,8701.43 22020.12,8707.67 22020.12,8707.67 22038.16,8715.56 22038.16,8715.56 22049.56,8720.49 22049.56,8720.49 22058.83,8724.49 22058.83,8724.49 22079.56,8733.48 22079.56,8733.48 22092.24,8738.91 22092.24,8738.91 22103.49,8743.62 22103.49,8743.62 22112.06,8747.16 22112.06,8747.16 22121.06,8750.83 22121.06,8750.83 22130.05,8754.35 22130.05,8754.35 22139.54,8758.01 22139.54,8758.01 22149.24,8761.56 22149.24,8761.56 22155.97,8763.97 22155.97,8763.97 22163.60,8766.68 22163.60,8766.68 22174.19,8770.34 22174.19,8770.34 22179.74,8772.22 22179.74,8772.22 22187.61,8774.86 22187.61,8774.86 22190.99,8775.97 22190.99,8775.97 22197.92,8778.32 22197.92,8778.32 22207.42,8781.40 22207.42,8781.40 22218.82,8785.07 22218.82,8785.07 22230.88,8788.88 22230.88,8788.88 22242.19,8792.42 22242.19,8792.42 22252.84,8795.76 22252.84,8795.76 22267.37,8800.23 22267.37,8800.23 22271.32,8801.46">
        <lane index="0" width="3.66" type="shoulder" disallow="all" />
        <lane index="1" width="3.66" />
        <lane index="2" width="3.66" />
    </edge>
    <edge id="121.0" from="junction_108" to="node_121_end" numLanes="1" speed="13.89" type="town" shape="21943.78,8665.82 21952.75,8668.54 21952.75,8668.54 21967.53,8672.90 21967.53,8672.90 21978.68,8676.19 21978.68,8676.19 22007.89,8684.43">
        <lane index="0" width="3.66" />
    </edge>
    <edge id="122.0" from="node_122_start" to="junction_65" numLanes="3" speed="13.89" type="town" shape="25153.26,9729.06 25162.75,9732.68 25162.75,9732.68 25170.47,9735.61 25170.47,9735.61 25180.93,9739.60 25180.93,9739.60 25192.88,9744.17 25192.88,9744.17 25204.58,9748.70 25204.58,9748.70 25221.11,9755.02 25221.11,9755.02 25241.22,9762.72 25241.22,9762.72 25263.54,9771.21 25263.54,9771.21 25283.00,9778.70 25283.00,9778.70 25314.98,9790.95 25314.98,9790.95 25349.93,9804.28 25349.93,9804.28 25398.35,9822.87 25398.35,9822.87 25428.12,9834.19 25428.12,9834.19 25470.65,9850.42 25470.65,9850.42 25502.18,9862.49 25502.18,9862.49 25559.23,9884.08 25559.23,9884.08 25595.09,9897.89 25595.09,9897.89 25622.92,9908.47 25622.92,9908.47 25648.48,9918.32 25648.48,9918.32 25658.07,9922.05">
        <lane index="0" width="3.66" type="shoulder" disallow="all" />
        <lane index="1" width="3.66" />
        <lane index="2" width="3.66" />
    </edge>
    <edge id="123.0" from="node_123_start" to="node_123_end" numLanes="2" speed="13.89" type="town" shape="22435.93,8852.14 22445.46,8855.06 22445.46,8855.06 22453.58,8857.56 22453.58,8857.56 22461.61,8860.06 22461.61,8860.06 22477.09,8864.81 22477.09,8864.81 22481.92,8866.29 22481.92,8866.29 22489.41,8868.67 22489.41,8868.67 22498.64,8871.51">
        <lane index="0" width="3.66" />
        <lane index="1" width="3.66" />
    </edge>
    <edge id="124.0" from="node_124_start" to="node_122_start" numLanes="2" speed="13.89" type="town" shape="25093.85,9706.51 25122.71,9717.51 25122.71,9717.51 25139.45,9723.85 25139.45,9723.85 25153.26,9729.06">
        <lane index="0" width="3.66" />
        <lane index="1" width="3.66" />
    </edge>
    <edge id="125.0" from="junction_65" to="node_125_end" numLanes="1" speed="13.89" type="town" shape="25717.59,9936.99 25723.16,9938.51 25723.16,9938.51 25733.02,9941.07 25733.02,9941.07 25743.29,9943.72 25743.29,9943.72 25754.18,9946.36 25754.18,9946.36 25764.96,9948.87 25764.96,9948.87 25775.57,9951.09 25775.57,9951.09 25785.98,9952.95 25785.98,9952.95 25790.92,9953.82 25790.92,9953.82 25796.57,9954.74 25796.57,9954.74 25800.52,9955.07 25800.52,9955.07 25803.84,9954.69 25803.84,9954.69 25807.02,9954.04 25807.02,9954.04 25810.26,9952.83">
        <lane index="0" width="3.66" />
    </edge>
    <edge id="126.0" from="node_124_start" to="node_122_start" numLanes="1" speed="13.89" type="town" shape="25096.07,9699.97 25154.50,9725.70">
        <lane index="0" width="3.66" />
    </edge>
    <edge id="127.0" from="junction_9" to="node_123_start" numLanes="3" speed="13.89" type="town" shape="22330.11,8819.47 22338.91,8822.15 22338.91,8822.15 22352.80,8826.41 22352.80,8826.41 22363.07,8829.62 22363.07,8829.62 22370.82,8832.05 22370.82,8832.05 22379.05,8834.60 22379.05,8834.60 22389.38,8837.80 22389.38,8837.80 22401.86,8841.64 22401.86,8841.64 22419.49,8847.07 22419.49,8847.07 22435.93,8852.14">
        <lane index="0" width="3.66" />
        <lane index="1" width="3.66" />
        <lane index="2" width="3.66" />
    </edge>
    <edge id="128.0" from="node_128_start" to="node_128_end" numLanes="3" speed="13.89" type="town" shape="25779.07,9968.18 25788.19,9971.71 25788.19,9971.71 25802.09,9977.03 25802.09,9977.03 25815.48,9982.10 25815.48,9982.10 25826.81,9986.43 25826.81,9986.43 25840.42,9991.65 25840.42,9991.65 25865.82,10001.41 25865.82,10001.41 25882.04,10007.64 25882.04,10007.64 25897.77,10013.68 25897.77,10013.68 25912.43,10019.28">
        <lane index="0" width="3.66" type="shoulder" disallow="all" />
        <lane index="1" width="3.66" />
        <lane index="2" width="3.66" />
    </edge>
    <edge id="13.0" from="junction_4" to="junction_60" numLanes="5" speed="13.89" type="town" shape="236417.25,39982.34 236452.70,39983.94 236452.70,39983.94 236985.39,39999.52">
        <lane index="0" width="3.66" type="shoulder" disallow="all" />
        <lane index="1" width="3.66" />
        <lane index="2" width="3.66" />
        <lane index="3" width="3.66" />
        <lane index="4" width="3.66" type="shoulder" disallow="all" />
    </edge>
    <edge id="131.0" from="junction_10" to="node_131_end" numLanes="3" speed="13.89" type="town" shape="26252.62,10149.27 26277.40,10158.72 26277.40,10158.72 26298.61,10166.81 26298.61,10166.81 26321.06,10175.33 26321.06,10175.33 26344.69,10184.45 26344.69,10184.45 26364.82,10192.11">
        <lane index="0" width="3.66" />
        <lane index="1" width="3.66" />
        <lane index="2" width="3.66" />
    </edge>
    <edge id="132.0" from="node_132_start" to="node_132_end" numLanes="3" speed="13.89" type="town" shape="25983.26,10046.16 25999.05,10052.22 25999.05,10052.22 26013.33,10057.68 26013.33,10057.68 26019.03,10059.84">
        <lane index="0" width="3.66" type="shoulder" disallow="all" />
        <lane index="1" width="3.66" />
        <lane index="2" width="3.66" />
    </edge>
    <edge id="133.0" from="node_133_start" to="junction_66" numLanes="3" speed="13.89" type="town" shape="26436.11,10219.39 26442.72,10221.92 26442.72,10221.92 26451.62,10225.36 26451.62,10225.36 26464.01,10230.09 26464.01,10230.09 26475.64,10234.54 26475.64,10234.54 26482.64,10237.24 26482.64,10237.24 26491.20,10240.52 26491.20,10240.52 26502.51,10244.85 26502.51,10244.85 26517.74,10250.71 26517.74,10250.71 26529.26,10255.20 26529.26,10255.20 26547.97,10262.37 26547.97,10262.37 26566.12,10269.30 26566.12,10269.30 26579.22,10274.31 26579.22,10274.31 26589.20,10278.08 26589.20,10278.08 26601.60,10282.78 26601.60,10282.78 26614.94,10287.91 26614.94,10287.91 26627.80,10292.81 26627.80,10292.81 26644.10,10299.04 26644.10,10299.04 26660.59,10305.34 26660.59,10305.34 26681.11,10313.24 26681.11,10313.24 26693.90,10318.15 26693.90,10318.15 26708.38,10323.63 26708.38,10323.63 26725.42,10330.15 26725.42,10330.15 26735.80,10334.14 26735.80,10334.14 26754.88,10341.43 26754.88,10341.43 26781.45,10351.61 26781.45,10351.61 26808.44,10361.84 26808.44,10361.84 26842.66,10374.86 26842.66,10374.86 26876.40,10387.85 26876.40,10387.85 26891.35,10393.61 26891.35,10393.61 26911.97,10401.48 26911.97,10401.48 26932.07,10409.21 26932.07,10409.21 26958.26,10419.16 26958.26,10419.16 26994.19,10432.85 26994.19,10432.85 27043.06,10451.67 27043.06,10451.67 27075.01,10463.97 27075.01,10463.97 27109.76,10477.31 27109.76,10477.31 27154.90,10494.53 27154.90,10494.53 27184.98,10505.88 27184.98,10505.88 27228.81,10522.56 27228.81,10522.56 27260.15,10534.57 27260.15,10534.57 27291.03,10546.43 27291.03,10546.43 27336.69,10564.00 27336.69,10564.00 27379.07,10580.20 27379.07,10580.20 27410.54,10592.29 27410.54,10592.29 27440.15,10603.70 27440.15,10603.70 27475.58,10617.25 27475.58,10617.25 27511.30,10630.91 27511.30,10630.91 27542.95,10642.91 27542.95,10642.91 27576.27,10655.65 27576.27,10655.65 27580.51,10657.28 27580.51,10657.28 27597.67,10663.86 27597.67,10663.86 27619.27,10672.07 27619.27,10672.07 27639.70,10679.88 27639.70,10679.88 27653.83,10685.23 27653.83,10685.23 27673.87,10692.89 27673.87,10692.89 27698.09,10702.10 27698.09,10702.10 27721.45,10711.03 27721.45,10711.03 27740.78,10718.40 27740.78,10718.40 27769.94,10729.56 27769.94,10729.56 27801.26,10741.63 27801.26,10741.63 27830.08,10752.62 27830.08,10752.62 27871.98,10768.77 27871.98,10768.77 27908.00,10782.46 27908.00,10782.46 27955.07,10800.52 27955.07,10800.52 27985.90,10812.20 27985.90,10812.20 28018.97,10824.82 28018.97,10824.82 28063.42,10841.70 28063.42,10841.70 28095.42,10853.84 28095.42,10853.84 28120.64,10863.53 28120.64,10863.53 28150.57,10874.96 28150.57,10874.96 28170.76,10882.63 28170.76,10882.63 28239.93,10909.17 28239.93,10909.17 28275.94,10922.92 28275.94,10922.92 28305.52,10934.23 28305.52,10934.23 28327.19,10942.43 28327.19,10942.43 28350.86,10951.45 28350.86,10951.45 28382.78,10963.62 28382.78,10963.62 28409.76,10973.87 28409.76,10973.87 28434.51,10983.34 28434.51,10983.34 28461.02,10993.65 28461.02,10993.65 28477.83,11000.16 28477.83,11000.16 28500.00,11008.85 28500.00,11008.85 28522.11,11017.65 28522.11,11017.65 28540.41,11025.24">
        <lane index="0" width="3.66" type="shoulder" disallow="all" />
        <lane index="1" width="3.66" />
        <lane index="2" width="3.66" />
    </edge>
    <edge id="134.0" from="node_128_end" to="node_132_start" numLanes="3" speed="13.89" type="town" shape="25912.43,10019.28 25918.54,10021.57 25918.54,10021.57 25928.40,10025.30 25928.40,10025.30 25944.61,10031.44 25944.61,10031.44 25959.42,10037.10 25959.42,10037.10 25978.58,10044.36 25978.58,10044.36 25983.26,10046.16">
        <lane index="0" width="3.66" type="shoulder" disallow="all" />
        <lane index="1" width="3.66" />
        <lane index="2" width="3.66" />
    </edge>
    <edge id="136.0" from="node_123_start" to="node_123_end" numLanes="1" speed="13.89" type="town" shape="22438.09,8845.55 22499.66,8867.99">
        <lane index="0" width="3.66" />
    </edge>
    <edge id="139.0" from="node_131_end" to="node_133_start" numLanes="2" speed="13.89" type="town" shape="26364.82,10192.11 26378.24,10197.20 26378.24,10197.20 26392.69,10202.69 26392.69,10202.69 26413.86,10210.85 26413.86,10210.85 26436.11,10219.39">
        <lane index="0" width="3.66" />
        <lane index="1" width="3.66" />
    </edge>
    <edge id="141.0" from="junction_11" to="node_124_start" numLanes="3" speed="13.89" type="town" shape="24973.37,9660.47 24981.50,9663.57 24981.50,9663.57 24988.16,9666.13 24988.16,9666.13 24996.27,9669.22 24996.27,9669.22 25003.13,9671.83 25003.13,9671.83 25013.80,9675.90 25013.80,9675.90 25030.43,9682.20 25030.43,9682.20 25044.82,9687.70 25044.82,9687.70 25062.86,9694.62 25062.86,9694.62 25080.80,9701.47 25080.80,9701.47 25093.85,9706.51">
        <lane index="0" width="3.66" />
        <lane index="1" width="3.66" />
        <lane index="2" width="3.66" />
    </edge>
    <edge id="143.0" from="node_132_end" to="node_143_end" numLanes="3" speed="13.89" type="town" shape="26019.03,10059.84 26032.24,10064.90 26032.24,10064.90 26047.94,10070.91 26047.94,10070.91 26062.20,10076.39 26062.20,10076.39 26083.29,10084.45 26083.29,10084.45 26107.34,10093.64">
        <lane index="0" width="3.66" type="shoulder" disallow="all" />
        <lane index="1" width="3.66" />
        <lane index="2" width="3.66" />
    </edge>
    <edge id="144.0" from="node_144_start" to="junction_11" numLanes="3" speed="13.89" type="town" shape="24394.67,9457.85 24406.42,9461.45 24406.42,9461.45 24413.68,9463.74 24413.68,9463.74 24421.25,9466.08 24421.25,9466.08 24429.31,9468.61 24429.31,9468.61 24436.54,9470.84 24436.54,9470.84 24446.52,9473.95 24446.52,9473.95 24458.12,9477.50 24458.12,9477.50 24474.10,9482.50 24474.10,9482.50 24488.52,9487.02 24488.52,9487.02 24505.40,9492.22 24505.40,9492.22 24524.11,9497.99 24524.11,9497.99 24543.84,9504.08 24543.84,9504.08 24559.43,9508.86 24559.43,9508.86 24574.81,9513.62 24574.81,9513.62 24593.69,9519.45 24593.69,9519.45 24614.25,9525.80 24614.25,9525.80 24629.52,9530.81 24629.52,9530.81 24643.43,9535.54 24643.43,9535.54 24656.68,9540.18 24656.68,9540.18 24670.66,9545.26 24670.66,9545.26 24686.74,9551.23 24686.74,9551.23 24695.59,9554.51 24695.59,9554.51 24708.90,9559.53 24708.90,9559.53 24731.90,9568.16 24731.90,9568.16 24748.19,9574.29 24748.19,9574.29 24763.53,9580.09 24763.53,9580.09 24788.26,9589.49 24788.26,9589.49 24807.34,9596.72 24807.34,9596.72 24840.01,9609.26 24840.01,9609.26 24876.42,9623.29 24876.42,9623.29 24910.81,9636.50">
        <lane index="0" width="3.66" type="shoulder" disallow="all" />
        <lane index="1" width="3.66" />
        <lane index="2" width="3.66" />
    </edge>
    <edge id="145.0" from="node_143_end" to="junction_10" numLanes="3" speed="13.89" type="town" shape="26107.34,10093.64 26115.45,10096.74 26115.45,10096.74 26130.65,10102.59 26130.65,10102.59 26153.08,10111.22 26153.08,10111.22 26163.92,10115.43 26163.92,10115.43 26172.60,10118.76 26172.60,10118.76 26180.44,10121.73 26180.44,10121.73 26189.87,10125.33 26189.87,10125.33 26201.92,10129.87 26201.92,10129.87 26207.23,10131.88">
        <lane index="0" width="3.66" type="shoulder" disallow="all" />
        <lane index="1" width="3.66" />
        <lane index="2" width="3.66" />
    </edge>
    <edge id="146.0" from="junction_65" to="node_128_start" numLanes="2" speed="13.89" type="town" shape="25714.76,9943.64 25733.37,9950.74 25733.37,9950.74 25756.23,9959.51 25756.23,9959.51 25765.82,9963.17 25765.82,9963.17 25779.07,9968.18">
        <lane index="0" width="3.66" />
        <lane index="1" width="3.66" />
    </edge>