<?xml version="1.0" encoding="UTF-8"?>

<!-- generated on 2025-10-22 22:39:01 by Eclipse SUMO netconvert Version 1.23.1
<netconvertConfiguration xmlns:xsi="http://www.w3.org/2001/XMLSchema-instance" xsi:noNamespaceSchemaLocation="http://sumo.dlr.de/xsd/netconvertConfiguration.xsd">

    <input>
        <node-files value="/home/sdai/harry/TeraSim/jupiter/jupiter_eb.nod.xml"/>
        <edge-files value="/home/sdai/harry/TeraSim/jupiter/jupiter_eb.edg.xml"/>
        <connection-files value="/home/sdai/harry/TeraSim/jupiter/jupiter_eb.con.xml"/>
    </input>

    <output>
        <output-file value="/home/sdai/harry/TeraSim/jupiter/jupiter_eb.net.xml"/>
        <output.street-names value="true"/>
        <output.original-names value="true"/>
    </output>

    <processing>
        <geometry.remove value="false"/>
        <geometry.min-dist value="0.5"/>
        <edges.join value="false"/>
    </processing>

    <junctions>
        <no-internal-links value="false"/>
        <no-turnarounds value="true"/>
        <junctions.join value="true"/>
        <junctions.join-dist value="10"/>
        <junctions.corner-detail value="5"/>
        <junctions.internal-link-detail value="5"/>
        <junctions.limit-turn-speed value="5.5"/>
        <rectangular-lane-cut value="true"/>
        <check-lane-foes.all value="true"/>
    </junctions>

</netconvertConfiguration>
-->

<net version="1.20" junctionCornerDetail="5" junctionLinkDetail="5" rectangularLaneCut="true" limitTurnSpeed="5.50" checkLaneFoesAll="1" xmlns:xsi="http://www.w3.org/2001/XMLSchema-instance" xsi:noNamespaceSchemaLocation="http://sumo.dlr.de/xsd/net_file.xsd">

    <location netOffset="-563887.05,-3258169.84" convBoundary="0.00,0.00,241516.53,40231.01" origBoundary="563887.050000,3258169.840000,805403.570000,3298400.850000" projParameter="+proj=utm +zone=14 +datum=WGS84 +units=m +no_defs"/>

    <edge id=":j_merge_end_1_0" function="internal">
        <lane id=":j_merge_end_1_0_0" index="0" disallow="all" speed="13.89" length="3.06" width="3.66" shape="221547.97,38788.87 221549.99,38803.37"/>
        <lane id=":j_merge_end_1_0_1" index="1" speed="13.89" length="3.06" width="3.66" shape="221548.47,38792.50 221548.75,38792.46"/>
        <lane id=":j_merge_end_1_0_2" index="2" speed="13.89" length="3.06" width="3.66" shape="221548.96,38796.12 221549.17,38796.10"/>
        <lane id=":j_merge_end_1_0_3" index="3" speed="13.89" length="3.06" width="3.66" shape="221549.46,38799.75 221549.58,38799.74"/>
        <lane id=":j_merge_end_1_0_4" index="4" disallow="all" speed="13.89" length="3.06" width="3.66" shape="221549.95,38803.38 221549.99,38803.37"/>
    </edge>
    <edge id=":j_merge_end_12_0" function="internal">
        <lane id=":j_merge_end_12_0_0" index="0" speed="13.89" length="36.38" width="3.66" shape="30259.97,12659.52 30267.39,12666.10 30272.67,12672.85 30277.94,12679.59 30285.37,12686.17"/>
        <lane id=":j_merge_end_12_0_1" index="1" speed="13.89" length="36.38" width="3.66" shape="30257.87,12662.51 30287.47,12683.17"/>
        <lane id=":j_merge_end_12_0_2" index="2" speed="13.89" length="36.38" width="3.66" shape="30255.77,12665.51 30285.37,12686.17"/>
    </edge>
    <edge id=":j_merge_end_22_0" function="internal">
        <lane id=":j_merge_end_22_0_0" index="0" speed="13.89" length="2.64" width="3.66" shape="63003.55,22229.74 63001.59,22236.79"/>
        <lane id=":j_merge_end_22_0_1" index="1" speed="13.89" length="2.64" width="3.66" shape="63002.43,22233.22 63002.71,22233.31"/>
        <lane id=":j_merge_end_22_0_2" index="2" speed="13.89" length="2.64" width="3.66" shape="63001.30,22236.70 63001.59,22236.79"/>
    </edge>
    <edge id=":j_merge_end_23_0" function="internal">
        <lane id=":j_merge_end_23_0_0" index="0" speed="13.89" length="49.20" width="3.66" shape="66421.11,22655.09 66433.04,22655.42 66445.81,22657.05 66458.57,22658.66 66470.50,22658.93"/>
        <lane id=":j_merge_end_23_0_1" index="1" speed="13.89" length="49.20" width="3.66" shape="66421.36,22658.74 66470.23,22655.28"/>
        <lane id=":j_merge_end_23_0_2" index="2" speed="13.89" length="49.20" width="3.66" shape="66421.61,22662.39 66470.50,22658.93"/>
    </edge>
    <edge id=":j_merge_end_24_0" function="internal">
        <lane id=":j_merge_end_24_0_0" index="0" speed="13.89" length="43.89" width="3.66" shape="72984.63,23042.90 72995.23,23046.19 73005.32,23050.78 73015.40,23055.38 73026.01,23058.65"/>
        <lane id=":j_merge_end_24_0_1" index="1" speed="13.89" length="43.89" width="3.66" shape="72983.92,23046.49 73026.72,23055.06"/>
        <lane id=":j_merge_end_24_0_2" index="2" speed="13.89" length="43.89" width="3.66" shape="72983.21,23050.08 73026.01,23058.65"/>
    </edge>
    <edge id=":j_merge_end_25_0" function="internal">
        <lane id=":j_merge_end_25_0_0" index="0" speed="13.89" length="2.64" width="3.66" shape="81426.34,22750.06 81427.05,22757.35"/>
        <lane id=":j_merge_end_25_0_1" index="1" speed="13.89" length="2.64" width="3.66" shape="81426.54,22753.72 81426.84,22753.70"/>
        <lane id=":j_merge_end_25_0_2" index="2" speed="13.89" length="2.64" width="3.66" shape="81426.75,22757.37 81427.05,22757.35"/>
    </edge>
    <edge id=":j_merge_end_29_0" function="internal">
        <lane id=":j_merge_end_29_0_0" index="0" speed="13.89" length="34.91" width="3.66" shape="120343.81,28530.50 120353.38,28532.04 120360.94,28534.90 120368.51,28537.75 120378.08,28539.30"/>
        <lane id=":j_merge_end_29_0_1" index="1" speed="13.89" length="34.91" width="3.66" shape="120343.66,28534.15 120378.23,28535.64"/>
        <lane id=":j_merge_end_29_0_2" index="2" speed="13.89" length="34.91" width="3.66" shape="120343.51,28537.81 120378.08,28539.30"/>
    </edge>
    <edge id=":j_merge_end_3_0" function="internal">
        <lane id=":j_merge_end_3_0_0" index="0" disallow="all" speed="13.89" length="3.04" width="3.66" shape="234807.54,39916.98 234807.16,39931.61"/>
        <lane id=":j_merge_end_3_0_1" index="1" speed="13.89" length="3.04" width="3.66" shape="234807.43,39920.64 234807.67,39920.64"/>
        <lane id=":j_merge_end_3_0_2" index="2" speed="13.89" length="3.04" width="3.66" shape="234807.33,39924.29 234807.50,39924.30"/>
        <lane id=":j_merge_end_3_0_3" index="3" speed="13.89" length="3.04" width="3.66" shape="234807.23,39927.95 234807.33,39927.96"/>
        <lane id=":j_merge_end_3_0_4" index="4" disallow="all" speed="13.89" length="3.04" width="3.66" shape="234807.12,39931.61 234807.16,39931.61"/>
    </edge>
    <edge id=":j_merge_end_31_0" function="internal">
        <lane id=":j_merge_end_31_0_0" index="0" speed="13.89" length="43.64" width="3.66" shape="139668.47,28590.27 139679.04,28593.52 139689.06,28598.03 139699.08,28602.54 139709.65,28605.77"/>
        <lane id=":j_merge_end_31_0_1" index="1" speed="13.89" length="43.64" width="3.66" shape="139667.76,28593.86 139710.36,28602.18"/>
        <lane id=":j_merge_end_31_0_2" index="2" speed="13.89" length="43.64" width="3.66" shape="139667.05,28597.45 139709.65,28605.77"/>
    </edge>
    <edge id=":j_merge_end_32_0" function="internal">
        <lane id=":j_merge_end_32_0_0" index="0" speed="13.89" length="41.95" width="3.66" shape="144602.42,28492.74 144612.73,28489.55 144623.01,28487.84 144633.29,28486.14 144643.61,28482.96"/>
        <lane id=":j_merge_end_32_0_1" index="1" speed="13.89" length="41.95" width="3.66" shape="144603.86,28496.11 144642.17,28479.59"/>
        <lane id=":j_merge_end_32_0_2" index="2" speed="13.89" length="41.95" width="3.66" shape="144605.31,28499.47 144643.61,28482.96"/>
    </edge>
    <edge id=":j_merge_end_39_0" function="internal">
        <lane id=":j_merge_end_39_0_0" index="0" disallow="all" speed="13.89" length="37.85" width="3.66" shape="202163.34,36619.02 202174.26,36623.67 202180.03,36631.00 202185.80,36638.31 202196.72,36642.95"/>
        <lane id=":j_merge_end_39_0_1" index="1" speed="13.89" length="37.85" width="3.66" shape="202162.19,36626.25 202198.43,36632.11"/>
        <lane id=":j_merge_end_39_0_2" index="2" speed="13.89" length="37.85" width="3.66" shape="202161.61,36629.86 202197.86,36635.72"/>
        <lane id=":j_merge_end_39_0_3" index="3" speed="13.89" length="37.85" width="3.66" shape="202161.04,36633.48 202197.29,36639.34"/>
        <lane id=":j_merge_end_39_0_4" index="4" disallow="all" speed="13.89" length="37.85" width="3.66" shape="202160.46,36637.09 202196.72,36642.95"/>
    </edge>
    <edge id=":j_merge_end_40_0" function="internal">
        <lane id=":j_merge_end_40_0_0" index="0" disallow="all" speed="13.89" length="47.85" width="3.66" shape="205876.11,37314.82 205889.59,37320.73 205897.12,37328.82 205904.62,37336.89 205918.01,37342.76"/>
        <lane id=":j_merge_end_40_0_1" index="1" speed="13.89" length="47.85" width="3.66" shape="205874.52,37321.97 205920.38,37332.04"/>
        <lane id=":j_merge_end_40_0_2" index="2" speed="13.89" length="47.85" width="3.66" shape="205873.73,37325.54 205919.59,37335.62"/>
        <lane id=":j_merge_end_40_0_3" index="3" speed="13.89" length="47.85" width="3.66" shape="205872.93,37329.11 205918.80,37339.19"/>
        <lane id=":j_merge_end_40_0_4" index="4" disallow="all" speed="13.89" length="47.85" width="3.66" shape="205872.14,37332.68 205918.01,37342.76"/>
    </edge>
    <edge id=":j_merge_end_42_0" function="internal">
        <lane id=":j_merge_end_42_0_0" index="0" disallow="all" speed="13.89" length="43.94" width="3.66" shape="211331.84,37864.04 211343.29,37871.37 211348.75,37880.16 211354.21,37888.96 211365.63,37896.33"/>
        <lane id=":j_merge_end_42_0_1" index="1" speed="13.89" length="43.94" width="3.66" shape="211329.29,37870.90 211369.50,37886.05"/>
        <lane id=":j_merge_end_42_0_2" index="2" speed="13.89" length="43.94" width="3.66" shape="211328.01,37874.33 211368.21,37889.48"/>
        <lane id=":j_merge_end_42_0_3" index="3" speed="13.89" length="43.94" width="3.66" shape="211326.73,37877.76 211366.92,37892.90"/>
        <lane id=":j_merge_end_42_0_4" index="4" disallow="all" speed="13.89" length="43.94" width="3.66" shape="211325.45,37881.19 211365.63,37896.33"/>
    </edge>
    <edge id=":j_merge_end_43_0" function="internal">
        <lane id=":j_merge_end_43_0_0" index="0" disallow="all" speed="13.89" length="36.08" width="3.66" shape="215354.93,39285.61 215365.66,39289.36 215371.60,39296.13 215377.54,39302.88 215388.27,39306.57"/>
        <lane id=":j_merge_end_43_0_1" index="1" speed="13.89" length="36.08" width="3.66" shape="215354.33,39292.90 215389.11,39295.62"/>
        <lane id=":j_merge_end_43_0_2" index="2" speed="13.89" length="36.08" width="3.66" shape="215354.03,39296.55 215388.83,39299.27"/>
        <lane id=":j_merge_end_43_0_3" index="3" speed="13.89" length="36.08" width="3.66" shape="215353.72,39300.20 215388.55,39302.92"/>
        <lane id=":j_merge_end_43_0_4" index="4" disallow="all" speed="13.89" length="36.08" width="3.66" shape="215353.42,39303.85 215388.27,39306.57"/>
    </edge>
    <edge id=":j_merge_end_47_0" function="internal">
        <lane id=":j_merge_end_47_0_0" index="0" disallow="all" speed="13.89" length="48.99" width="3.66" shape="226928.23,40182.04 226942.31,40186.58 226951.09,40192.96 226959.90,40199.21 226974.04,40203.33"/>
        <lane id=":j_merge_end_47_0_1" index="1" speed="13.89" length="48.99" width="3.66" shape="226927.65,40185.66 226975.44,40192.44"/>
        <lane id=":j_merge_end_47_0_2" index="2" speed="13.89" length="48.99" width="3.66" shape="226927.08,40189.27 226974.98,40196.07"/>
        <lane id=":j_merge_end_47_0_3" index="3" speed="13.89" length="48.99" width="3.66" shape="226926.50,40192.89 226974.51,40199.70"/>
        <lane id=":j_merge_end_47_0_4" index="4" disallow="all" speed="13.89" length="48.99" width="3.66" shape="226925.93,40196.50 226974.04,40203.33"/>
    </edge>
    <edge id=":j_merge_end_48_0" function="internal">
        <lane id=":j_merge_end_48_0_0" index="0" disallow="all" speed="13.89" length="42.41" width="3.66" shape="16290.02,6177.23 16300.26,6183.61 16306.43,6190.44 16312.89,6197.40 16324.00,6204.17"/>
        <lane id=":j_merge_end_48_0_1" index="1" speed="13.89" length="42.41" width="3.66" shape="16288.55,6180.58 16326.95,6197.47"/>
        <lane id=":j_merge_end_48_0_2" index="2" speed="13.89" length="42.41" width="3.66" shape="16287.07,6183.93 16325.47,6200.82"/>
        <lane id=":j_merge_end_48_0_3" index="3" disallow="all" speed="13.89" length="42.41" width="3.66" shape="16285.60,6187.28 16324.00,6204.17"/>
    </edge>
    <edge id=":j_merge_end_49_0" function="internal">
        <lane id=":j_merge_end_49_0_0" index="0" speed="13.89" length="42.44" width="3.66" shape="21478.34,8458.60 21488.43,8464.27 21497.93,8471.13 21506.58,8477.60 21514.11,8482.11"/>
        <lane id=":j_merge_end_49_0_1" index="1" speed="13.89" length="42.44" width="3.66" shape="21476.86,8461.94 21515.58,8478.76"/>
        <lane id=":j_merge_end_49_0_2" index="2" speed="13.89" length="42.44" width="3.66" shape="21475.37,8465.29 21514.11,8482.11"/>
    </edge>
    <edge id=":j_merge_end_5_0" function="internal">
        <lane id=":j_merge_end_5_0_0" index="0" disallow="all" speed="13.89" length="3.17" width="3.66" shape="238448.94,40027.51 238448.81,40042.16"/>
        <lane id=":j_merge_end_5_0_1" index="1" speed="13.89" length="3.17" width="3.66" shape="238448.83,40031.17 238449.13,40031.18"/>
        <lane id=":j_merge_end_5_0_2" index="2" speed="13.89" length="3.17" width="3.66" shape="238448.72,40034.83 238449.02,40034.84"/>
        <lane id=":j_merge_end_5_0_3" index="3" speed="13.89" length="3.17" width="3.66" shape="238448.61,40038.49 238448.91,40038.50"/>
        <lane id=":j_merge_end_5_0_4" index="4" disallow="all" speed="13.89" length="3.17" width="3.66" shape="238448.50,40042.15 238448.81,40042.16"/>
    </edge>
    <edge id=":j_merge_end_50_0" function="internal">
        <lane id=":j_merge_end_50_0_0" index="0" disallow="all" speed="13.89" length="40.57" width="3.66" shape="19576.02,7622.50 19586.26,7629.53 19591.30,7637.27 19596.34,7645.01 19606.59,7652.03"/>
        <lane id=":j_merge_end_50_0_1" index="1" speed="13.89" length="40.57" width="3.66" shape="19574.54,7625.84 19611.01,7641.98"/>
        <lane id=":j_merge_end_50_0_2" index="2" speed="13.89" length="40.57" width="3.66" shape="19573.06,7629.19 19609.54,7645.33"/>
        <lane id=":j_merge_end_50_0_3" index="3" speed="13.89" length="40.57" width="3.66" shape="19571.58,7632.54 19608.06,7648.68"/>
        <lane id=":j_merge_end_50_0_4" index="4" disallow="all" speed="13.89" length="40.57" width="3.66" shape="19570.10,7635.89 19606.59,7652.03"/>
    </edge>
    <edge id=":j_merge_end_53_0" function="internal">
        <lane id=":j_merge_end_53_0_0" index="0" speed="13.89" length="51.17" width="3.66" shape="178269.10,31236.35 178279.63,31242.57 178290.13,31251.56 178300.68,31260.41 178311.37,31266.17"/>
        <lane id=":j_merge_end_53_0_1" index="1" speed="13.89" length="51.17" width="3.66" shape="178266.60,31243.23 178277.52,31248.37 178288.88,31255.00 178300.29,31261.48 178311.37,31266.17"/>
    </edge>
    <edge id=":j_merge_end_54_0" function="internal">
        <lane id=":j_merge_end_54_0_0" index="0" speed="13.89" length="49.61" width="3.66" shape="41405.69,16798.42 41416.91,16802.66 41428.56,16808.46 41440.20,16814.27 41451.40,16818.57"/>
        <lane id=":j_merge_end_54_0_1" index="1" speed="13.89" length="49.61" width="3.66" shape="41404.73,16801.95 41452.39,16815.04"/>
        <lane id=":j_merge_end_54_0_2" index="2" speed="13.89" length="49.61" width="3.66" shape="41403.77,16805.48 41451.40,16818.57"/>
    </edge>
    <edge id=":j_merge_end_55_0" function="internal">
        <lane id=":j_merge_end_55_0_0" index="0" speed="13.89" length="48.91" width="3.66" shape="54321.82,19397.17 54332.62,19402.13 54343.62,19408.62 54354.63,19415.10 54365.43,19420.06"/>
        <lane id=":j_merge_end_55_0_1" index="1" speed="13.89" length="48.91" width="3.66" shape="54320.62,19400.63 54366.63,19416.60"/>
        <lane id=":j_merge_end_55_0_2" index="2" speed="13.89" length="48.91" width="3.66" shape="54319.41,19404.08 54365.43,19420.06"/>
    </edge>
    <edge id=":j_merge_end_6_0" function="internal">
        <lane id=":j_merge_end_6_0_0" index="0" disallow="all" speed="13.89" length="3.16" width="3.66" shape="231883.91,40031.64 231883.69,40046.28"/>
        <lane id=":j_merge_end_6_0_1" index="1" speed="13.89" length="3.16" width="3.66" shape="231883.78,40035.29 231884.09,40035.30"/>
        <lane id=":j_merge_end_6_0_2" index="2" speed="13.89" length="3.16" width="3.66" shape="231883.66,40038.95 231883.96,40038.96"/>
        <lane id=":j_merge_end_6_0_3" index="3" speed="13.89" length="3.16" width="3.66" shape="231883.53,40042.61 231883.82,40042.62"/>
        <lane id=":j_merge_end_6_0_4" index="4" disallow="all" speed="13.89" length="3.16" width="3.66" shape="231883.40,40046.27 231883.69,40046.28"/>
    </edge>
    <edge id=":j_merge_end_7_0" function="internal">
        <lane id=":j_merge_end_7_0_0" index="0" disallow="all" speed="13.89" length="3.17" width="3.66" shape="230798.91,39993.70 230798.70,40008.35"/>
        <lane id=":j_merge_end_7_0_1" index="1" speed="13.89" length="3.17" width="3.66" shape="230798.79,39997.36 230799.09,39997.37"/>
        <lane id=":j_merge_end_7_0_2" index="2" speed="13.89" length="3.17" width="3.66" shape="230798.66,40001.02 230798.96,40001.03"/>
        <lane id=":j_merge_end_7_0_3" index="3" speed="13.89" length="3.17" width="3.66" shape="230798.53,40004.68 230798.83,40004.69"/>
        <lane id=":j_merge_end_7_0_4" index="4" disallow="all" speed="13.89" length="3.17" width="3.66" shape="230798.41,40008.34 230798.70,40008.35"/>
    </edge>
    <edge id=":j_merge_end_8_0" function="internal">
        <lane id=":j_merge_end_8_0_0" index="0" disallow="all" speed="13.89" length="39.08" width="3.66" shape="1868.82,666.41 1878.97,673.18 1883.50,681.53 1888.03,689.88 1898.18,696.65"/>
        <lane id=":j_merge_end_8_0_1" index="1" speed="13.89" length="39.08" width="3.66" shape="1866.29,673.28 1901.97,686.35"/>
        <lane id=":j_merge_end_8_0_2" index="2" speed="13.89" length="39.08" width="3.66" shape="1865.03,676.71 1900.71,689.78"/>
        <lane id=":j_merge_end_8_0_3" index="3" speed="13.89" length="39.08" width="3.66" shape="1863.76,680.15 1899.45,693.22"/>
        <lane id=":j_merge_end_8_0_4" index="4" disallow="all" speed="13.89" length="39.08" width="3.66" shape="1862.50,683.58 1898.18,696.65"/>
    </edge>
    <edge id=":j_merge_start_1_0" function="internal">
        <lane id=":j_merge_start_1_0_0" index="0" speed="13.89" length="311.81" width="3.66" shape="221221.75,38812.99 221532.76,38790.78"/>
    </edge>
    <edge id=":j_merge_start_1_1" function="internal">
        <lane id=":j_merge_start_1_1_0" index="0" speed="13.89" length="292.70" width="3.66" shape="221242.38,38827.68 221533.18,38794.42"/>
        <lane id=":j_merge_start_1_1_1" index="1" speed="13.89" length="292.70" width="3.66" shape="221242.80,38831.32 221533.61,38798.05"/>
        <lane id=":j_merge_start_1_1_2" index="2" speed="13.89" length="292.70" width="3.66" shape="221243.22,38834.95 221534.03,38801.69"/>
        <lane id=":j_merge_start_1_1_3" index="3" disallow="all" speed="13.89" length="292.70" width="3.66" shape="221243.64,38838.59 221534.45,38805.32"/>
    </edge>
    <edge id=":j_merge_start_12_0" function="internal">
        <lane id=":j_merge_start_12_0_0" index="0" speed="13.89" length="77.05" width="3.66" shape="30114.96,12557.88 30124.69,12564.96 30143.29,12578.04 30163.48,12592.12 30177.97,12602.22"/>
    </edge>
    <edge id=":j_merge_start_12_1" function="internal">
        <lane id=":j_merge_start_12_1_0" index="0" speed="13.89" length="77.24" width="3.66" shape="30112.64,12560.88 30175.87,12605.22"/>
        <lane id=":j_merge_start_12_1_1" index="1" speed="13.89" length="77.24" width="3.66" shape="30110.53,12563.87 30173.77,12608.22"/>
    </edge>
    <edge id=":j_merge_start_22_0" function="internal">
        <lane id=":j_merge_start_22_0_0" index="0" speed="13.89" length="74.86" width="3.66" shape="62839.00,22176.59 62910.23,22199.60"/>
    </edge>
    <edge id=":j_merge_start_22_1" function="internal">
        <lane id=":j_merge_start_22_1_0" index="0" speed="13.89" length="74.82" width="3.66" shape="62837.88,22180.21 62909.11,22203.08"/>
        <lane id=":j_merge_start_22_1_1" index="1" speed="13.89" length="74.82" width="3.66" shape="62836.75,22183.69 62907.99,22206.57"/>
    </edge>
    <edge id=":j_merge_start_23_0" function="internal">
        <lane id=":j_merge_start_23_0_0" index="0" speed="13.89" length="58.76" width="3.66" shape="66232.22,22668.49 66290.83,22664.32"/>
    </edge>
    <edge id=":j_merge_start_23_1" function="internal">
        <lane id=":j_merge_start_23_1_0" index="0" speed="13.89" length="58.73" width="3.66" shape="66232.53,22672.20 66291.10,22667.97"/>
        <lane id=":j_merge_start_23_1_1" index="1" speed="13.89" length="58.73" width="3.66" shape="66232.79,22675.85 66291.37,22671.62"/>
    </edge>
    <edge id=":j_merge_start_24_0" function="internal">
        <lane id=":j_merge_start_24_0_0" index="0" speed="13.89" length="55.19" width="3.66" shape="72836.53,23013.27 72844.93,23015.18 72859.86,23018.19 72876.64,23021.47 72890.62,23024.22"/>
    </edge>
    <edge id=":j_merge_start_24_1" function="internal">
        <lane id=":j_merge_start_24_1_0" index="0" speed="13.89" length="55.37" width="3.66" shape="72835.61,23016.96 72889.91,23027.81"/>
        <lane id=":j_merge_start_24_1_1" index="1" speed="13.89" length="55.37" width="3.66" shape="72834.91,23020.55 72889.20,23031.40"/>
    </edge>
    <edge id=":j_merge_start_25_0" function="internal">
        <lane id=":j_merge_start_25_0_0" index="0" speed="13.89" length="89.80" width="3.66" shape="81156.50,22765.06 81170.51,22764.52 81197.59,22763.02 81226.54,22761.31 81246.16,22760.14"/>
    </edge>
    <edge id=":j_merge_start_25_1" function="internal">
        <lane id=":j_merge_start_25_1_0" index="0" speed="13.89" length="89.81" width="3.66" shape="81156.70,22768.89 81246.37,22763.80"/>
        <lane id=":j_merge_start_25_1_1" index="1" speed="13.89" length="89.81" width="3.66" shape="81156.91,22772.54 81246.58,22767.45"/>
    </edge>
    <edge id=":j_merge_start_29_0" function="internal">
        <lane id=":j_merge_start_29_0_0" index="0" speed="13.89" length="65.15" width="3.66" shape="120200.95,28524.84 120266.05,28527.38"/>
    </edge>
    <edge id=":j_merge_start_29_1" function="internal">
        <lane id=":j_merge_start_29_1_0" index="0" speed="13.89" length="65.13" width="3.66" shape="120200.83,28528.59 120265.91,28531.03"/>
        <lane id=":j_merge_start_29_1_1" index="1" speed="13.89" length="65.13" width="3.66" shape="120200.67,28532.24 120265.76,28534.69"/>
    </edge>
    <edge id=":j_merge_start_3_0" function="internal">
        <lane id=":j_merge_start_3_0_0" index="0" speed="13.89" length="3.04" width="3.66" shape="234489.51,39907.50 234490.41,39907.60 234491.01,39907.77 234491.61,39907.93 234492.50,39908.02"/>
    </edge>
    <edge id=":j_merge_start_3_1" function="internal">
        <lane id=":j_merge_start_3_1_0" index="0" speed="13.89" length="3.01" width="3.66" shape="234489.41,39911.59 234492.40,39911.68"/>
        <lane id=":j_merge_start_3_1_1" index="1" speed="13.89" length="3.01" width="3.66" shape="234489.29,39915.25 234492.29,39915.34"/>
        <lane id=":j_merge_start_3_1_2" index="2" speed="13.89" length="3.01" width="3.66" shape="234489.18,39918.91 234492.19,39919.00"/>
        <lane id=":j_merge_start_3_1_3" index="3" disallow="all" speed="13.89" length="3.01" width="3.66" shape="234489.06,39922.56 234492.09,39922.65"/>
    </edge>
    <edge id=":j_merge_start_31_0" function="internal">
        <lane id=":j_merge_start_31_0_0" index="0" speed="13.89" length="69.84" width="3.66" shape="139524.85,28561.83 139593.35,28575.44"/>
    </edge>
    <edge id=":j_merge_start_31_1" function="internal">
        <lane id=":j_merge_start_31_1_0" index="0" speed="13.89" length="69.75" width="3.66" shape="139524.22,28565.51 139592.64,28579.03"/>
        <lane id=":j_merge_start_31_1_1" index="1" speed="13.89" length="69.75" width="3.66" shape="139523.52,28569.10 139591.94,28582.62"/>
    </edge>
    <edge id=":j_merge_start_32_0" function="internal">
        <lane id=":j_merge_start_32_0_0" index="0" speed="13.89" length="55.09" width="3.66" shape="144493.69,28539.50 144544.30,28517.75"/>
    </edge>
    <edge id=":j_merge_start_32_1" function="internal">
        <lane id=":j_merge_start_32_1_0" index="0" speed="13.89" length="54.99" width="3.66" shape="144495.24,28542.85 144545.75,28521.11"/>
        <lane id=":j_merge_start_32_1_1" index="1" speed="13.89" length="54.99" width="3.66" shape="144496.69,28546.21 144547.20,28524.47"/>
    </edge>
    <edge id=":j_merge_start_39_0" function="internal">
        <lane id=":j_merge_start_39_0_0" index="0" speed="13.89" length="61.99" width="3.66" shape="202024.79,36591.92 202085.04,36606.51"/>
    </edge>
    <edge id=":j_merge_start_39_1" function="internal">
        <lane id=":j_merge_start_39_1_0" index="0" speed="13.89" length="61.83" width="3.66" shape="202022.86,36604.00 202083.88,36613.74"/>
        <lane id=":j_merge_start_39_1_1" index="1" speed="13.89" length="61.83" width="3.66" shape="202022.26,36607.61 202083.31,36617.35"/>
        <lane id=":j_merge_start_39_1_2" index="2" speed="13.89" length="61.83" width="3.66" shape="202021.65,36611.22 202082.73,36620.97"/>
        <lane id=":j_merge_start_39_1_3" index="3" disallow="all" speed="13.89" length="61.83" width="3.66" shape="202021.05,36614.83 202082.15,36624.58"/>
    </edge>
    <edge id=":j_merge_start_40_0" function="internal">
        <lane id=":j_merge_start_40_0_0" index="0" speed="13.89" length="65.68" width="3.66" shape="205714.57,37274.25 205777.50,37293.08"/>
    </edge>
    <edge id=":j_merge_start_40_1" function="internal">
        <lane id=":j_merge_start_40_1_0" index="0" speed="13.89" length="65.48" width="3.66" shape="205712.02,37286.10 205775.94,37300.23"/>
        <lane id=":j_merge_start_40_1_1" index="1" speed="13.89" length="65.48" width="3.66" shape="205711.23,37289.68 205775.16,37303.81"/>
        <lane id=":j_merge_start_40_1_2" index="2" speed="13.89" length="65.48" width="3.66" shape="205710.44,37293.25 205774.39,37307.39"/>
        <lane id=":j_merge_start_40_1_3" index="3" disallow="all" speed="13.89" length="65.48" width="3.66" shape="205709.65,37296.82 205773.61,37310.96"/>
    </edge>
    <edge id=":j_merge_start_42_0" function="internal">
        <lane id=":j_merge_start_42_0_0" index="0" speed="13.89" length="85.28" width="3.66" shape="210942.02,37713.28 210952.06,37718.23 210972.23,37727.16 210996.88,37737.55 211020.39,37746.86"/>
    </edge>
    <edge id=":j_merge_start_42_1" function="internal">
        <lane id=":j_merge_start_42_1_0" index="0" speed="13.89" length="86.30" width="3.66" shape="210937.02,37723.32 211017.81,37753.71"/>
        <lane id=":j_merge_start_42_1_1" index="1" speed="13.89" length="86.30" width="3.66" shape="210935.74,37726.75 211016.52,37757.14"/>
        <lane id=":j_merge_start_42_1_2" index="2" speed="13.89" length="86.30" width="3.66" shape="210934.46,37730.18 211015.23,37760.56"/>
        <lane id=":j_merge_start_42_1_3" index="3" disallow="all" speed="13.89" length="86.30" width="3.66" shape="210933.17,37733.61 211013.94,37763.99"/>
    </edge>
    <edge id=":j_merge_start_43_0" function="internal">
        <lane id=":j_merge_start_43_0_0" index="0" speed="13.89" length="68.95" width="3.66" shape="215213.15,39270.28 215281.50,39279.37"/>
    </edge>
    <edge id=":j_merge_start_43_1" function="internal">
        <lane id=":j_merge_start_43_1_0" index="0" speed="13.89" length="68.97" width="3.66" shape="215212.27,39280.11 215280.86,39286.66"/>
        <lane id=":j_merge_start_43_1_1" index="1" speed="13.89" length="68.97" width="3.66" shape="215211.91,39283.76 215280.55,39290.30"/>
        <lane id=":j_merge_start_43_1_2" index="2" speed="13.89" length="68.97" width="3.66" shape="215211.54,39287.40 215280.23,39293.95"/>
        <lane id=":j_merge_start_43_1_3" index="3" disallow="all" speed="13.89" length="68.97" width="3.66" shape="215211.18,39291.04 215279.91,39297.60"/>
    </edge>
    <edge id=":j_merge_start_47_0" function="internal">
        <lane id=":j_merge_start_47_0_0" index="0" speed="13.89" length="79.27" width="3.66" shape="226764.05,40152.00 226841.76,40167.64"/>
    </edge>
    <edge id=":j_merge_start_47_1" function="internal">
        <lane id=":j_merge_start_47_1_0" index="0" speed="13.89" length="79.48" width="3.66" shape="226763.32,40155.87 226841.13,40171.25"/>
        <lane id=":j_merge_start_47_1_1" index="1" speed="13.89" length="79.48" width="3.66" shape="226762.59,40159.46 226840.50,40174.86"/>
        <lane id=":j_merge_start_47_1_2" index="2" speed="13.89" length="79.48" width="3.66" shape="226761.85,40163.04 226839.87,40178.46"/>
        <lane id=":j_merge_start_47_1_3" index="3" disallow="all" speed="13.89" length="79.48" width="3.66" shape="226761.11,40166.63 226839.24,40182.07"/>
    </edge>
    <edge id=":j_merge_start_48_0" function="internal">
        <lane id=":j_merge_start_48_0_0" index="0" speed="4.33" length="7.09" width="3.66" shape="15844.62,5986.10 15843.53,5984.20 15843.53,5982.84 15844.62,5982.03 15846.79,5981.75"/>
    </edge>
    <edge id=":j_merge_start_48_1" function="internal">
        <lane id=":j_merge_start_48_1_0" index="0" speed="13.89" length="186.89" width="3.66" shape="15674.28,5909.77 15845.31,5985.10"/>
        <lane id=":j_merge_start_48_1_1" index="1" speed="13.89" length="186.89" width="3.66" shape="15672.80,5913.12 15843.83,5988.45"/>
    </edge>
    <edge id=":j_merge_start_49_0" function="internal">