<?xml version='1.0' encoding='utf-8'?>
<nodes>
    <location netOffset="-563887.05,-3258169.84" convBoundary="0.00,0.00,241516.53,40231.01" origBoundary="563887.05,3258169.84,805403.57,3298400.85" projParameter="+proj=utm +zone=14 +datum=WGS84 +units=m +no_defs" />
    <node id="node_0_start" x="174337.7125833769" y="29165.466274438426" type="priority" />
    <node id="node_1_start" x="226219.01441713423" y="40015.65055304021" type="priority" />
    <node id="node_1_end" x="226387.13933192752" y="40066.40935759526" type="priority" />
    <node id="node_100_start" x="545.6199307619827" y="200.79826896218583" type="priority" />
    <node id="node_100_end" x="552.614499290823" y="203.385193716269" type="priority" />
    <node id="node_103_start" x="1486.2183987573953" y="520.5941582745872" type="priority" />
    <node id="node_104_start" x="5881.778850118048" y="1994.7249070946127" type="priority" />
    <node id="node_104_end" x="6239.963878330542" y="2129.675079465378" type="priority" />
    <node id="node_105_start" x="5768.958094092086" y="1952.2681657015346" type="priority" />
    <node id="node_106_start" x="9004.382602750207" y="3193.6016824520193" type="priority" />
    <node id="node_106_end" x="10219.676668625674" y="3676.2659499957226" type="priority" />
    <node id="node_107_start" x="10557.541568760294" y="3810.2378892283887" type="priority" />
    <node id="node_107_end" x="11658.387890215148" y="4246.899296185002" type="priority" />
    <node id="node_108_start" x="8709.385996801662" y="3076.581102859229" type="priority" />
    <node id="node_109_start" x="10522.189384925296" y="3766.4607916455716" type="priority" />
    <node id="node_109_end" x="10586.74930117873" y="3785.085672058165" type="priority" />
    <node id="node_110_start" x="15458.971218470484" y="5817.439494173508" type="priority" />
    <node id="node_110_end" x="15532.684280004236" y="5849.208307771478" type="priority" />
    <node id="node_111_start" x="15630.085929552326" y="5896.185913449153" type="priority" />
    <node id="node_112_start" x="13428.289490945986" y="4949.49764603097" type="priority" />
    <node id="node_112_end" x="13480.618564198492" y="4970.374140385073" type="priority" />
    <node id="node_113_start" x="14647.546759265824" y="5466.36572750425" type="priority" />
    <node id="node_113_end" x="14694.29632850329" y="5486.784308877774" type="priority" />
    <node id="node_114_start" x="13357.149510448333" y="4921.117307745386" type="priority" />
    <node id="node_115_start" x="13689.984845275409" y="5053.460412799846" type="priority" />
    <node id="node_115_end" x="14393.745540385135" y="5354.222123858519" type="priority" />
    <node id="node_121_end" x="22007.886651940644" y="8684.4285788103" type="priority" />
    <node id="node_122_start" x="25153.25719748251" y="9729.058145318646" type="priority" />
    <node id="node_123_start" x="22435.933510190574" y="8852.138134814333" type="priority" />
    <node id="node_123_end" x="22498.642695529736" y="8871.514917051885" type="priority" />
    <node id="node_124_start" x="25093.84690390376" y="9706.511270320043" type="priority" />
    <node id="node_125_end" x="25810.25953207782" y="9952.826059138868" type="priority" />
    <node id="node_126_start" x="25096.070252533187" y="9699.965651249513" type="priority" />
    <node id="node_126_end" x="25154.50165854208" y="9725.70371416863" type="priority" />
    <node id="node_128_start" x="25779.074580295477" y="9968.17919353256" type="priority" />
    <node id="node_128_end" x="25912.42972861021" y="10019.280038512312" type="priority" />
    <node id="node_131_end" x="26364.820353849325" y="10192.109094417654" type="priority" />
    <node id="node_132_start" x="25983.25886632793" y="10046.156060705427" type="priority" />
    <node id="node_132_end" x="26019.030497653177" y="10059.842004572507" type="priority" />
    <node id="node_133_start" x="26436.11474130908" y="10219.387292540632" type="priority" />
    <node id="node_136_start" x="22438.088740331586" y="8845.546686030459" type="priority" />
    <node id="node_136_end" x="22499.659403903643" y="8867.993692195509" type="priority" />
    <node id="node_143_end" x="26107.34325705259" y="10093.639077935368" type="priority" />
    <node id="node_144_start" x="24394.67315201275" y="9457.849969601724" type="priority" />
    <node id="node_148_end" x="24431.145106418175" y="9448.713479792234" type="priority" />
    <node id="node_153_start" x="26367.462718112394" y="10185.864435111638" type="priority" />
    <node id="node_153_end" x="26437.625758153736" y="10216.088937317953" type="priority" />
    <node id="node_154_start" x="28907.381776824477" y="11237.893274168018" type="priority" />
    <node id="node_154_end" x="29049.354297693586" y="11357.917972669471" type="priority" />
    <node id="node_156_start" x="31651.580393893993" y="13610.46100804815" type="priority" />
    <node id="node_156_end" x="31805.938331355923" y="13708.117787113879" type="priority" />
    <node id="node_157_end" x="29627.48639072315" y="12063.00539672561" type="priority" />
    <node id="node_158_start" x="31083.26136253425" y="13245.977681449614" type="priority" />
    <node id="node_158_end" x="31229.94260702911" y="13346.487832820509" type="priority" />
    <node id="node_159_start" x="29239.24017832603" y="11566.654341342393" type="priority" />
    <node id="node_160_start" x="30516.68995748891" y="12850.570546844974" type="priority" />
    <node id="node_160_end" x="30621.339032990858" y="12925.837991770357" type="priority" />
    <node id="node_161_end" x="28763.348186784307" y="11140.098969534505" type="priority" />
    <node id="node_162_start" x="30038.838112879428" y="12512.13183683483" type="priority" />
    <node id="node_163_end" x="31409.322619044222" y="13459.372724150773" type="priority" />
    <node id="node_167_start" x="30037.077365016215" y="12444.340168830939" type="priority" />
    <node id="node_168_start" x="29639.748224076116" y="12053.064786779694" type="priority" />
    <node id="node_168_end" x="29777.984751625336" y="12168.426248465199" type="priority" />
    <node id="node_169_start" x="29760.955180270597" y="12234.025308347773" type="priority" />
    <node id="node_169_end" x="29906.17192779039" y="12395.213073388673" type="priority" />
    <node id="node_172_end" x="29173.53723515186" y="11485.756781720556" type="priority" />
    <node id="node_173_start" x="32279.000873659388" y="14020.9189105127" type="priority" />
    <node id="node_173_end" x="32338.00138006138" y="14057.743690114934" type="priority" />
    <node id="node_176_start" x="31842.380931033753" y="13703.611490254756" type="priority" />
    <node id="node_177_start" x="32282.885832434287" y="14014.764723719563" type="priority" />
    <node id="node_177_end" x="32339.952810994466" y="14054.633464136627" type="priority" />
    <node id="node_178_start" x="31092.64256462606" y="13232.020396349486" type="priority" />
    <node id="node_178_end" x="31183.28784626804" y="13284.386695192661" type="priority" />
    <node id="node_18_start" x="241424.8309906507" y="40119.50536470674" type="priority" />
    <node id="node_18_end" x="241516.52649721527" y="40122.67298486922" type="priority" />
    <node id="node_190_end" x="28772.88379104878" y="11124.782854057383" type="priority" />
    <node id="node_195_end" x="28881.82111678843" y="11183.000528013334" type="priority" />
    <node id="node_197_start" x="33402.336713139666" y="14807.696956757456" type="priority" />
    <node id="node_198_start" x="34434.6416005654" y="15618.637303219642" type="priority" />
    <node id="node_2_end" x="226668.71659684135" y="40147.40530650504" type="priority" />
    <node id="node_200_end" x="32893.552475144854" y="14397.143464879598" type="priority" />
    <node id="node_206_start" x="35199.245297311456" y="16252.542289024219" type="priority" />
    <node id="node_208_end" x="34000.972278336994" y="15273.17697469471" type="priority" />
    <node id="node_21_start" x="221221.85387268884" y="38814.82338872831" type="priority" />
    <node id="node_211_end" x="36173.714735120535" y="16655.598077259026" type="priority" />
    <node id="node_216_start" x="38467.906494575436" y="16679.140972452704" type="priority" />
    <node id="node_216_end" x="38657.190318356734" y="16682.759802185" type="priority" />
    <node id="node_217_start" x="40490.555582731264" y="16702.714374629315" type="priority" />
    <node id="node_217_end" x="41019.95420405094" y="16720.510384624824" type="priority" />
    <node id="node_218_start" x="38919.15985708148" y="16685.800664774142" type="priority" />
    <node id="node_218_end" x="39098.94042358105" y="16687.727129498497" type="priority" />
    <node id="node_219_start" x="40050.44561975333" y="16697.821223914623" type="priority" />
    <node id="node_220_end" x="38737.195230008685" y="16683.760477118194" type="priority" />
    <node id="node_223_end" x="38196.16714109026" y="16675.72633740632" type="priority" />
    <node id="node_225_end" x="39814.44775549555" y="16695.20437648194" type="priority" />
    <node id="node_227_end" x="38293.09679255844" y="16676.839629242662" type="priority" />
    <node id="node_229_end" x="40490.32890682854" y="16686.77032163879" type="priority" />
    <node id="node_23_start" x="221575.93750435975" y="38787.58700482454" type="priority" />
    <node id="node_23_end" x="221726.95655909332" y="38774.00155594945" type="priority" />
    <node id="node_231_start" x="40884.36466422747" y="16657.06589982193" type="priority" />
    <node id="node_234_start" x="38196.182383550564" y="16669.05948812468" type="priority" />
    <node id="node_234_end" x="38293.256602450274" y="16673.579709560145" type="priority" />
    <node id="node_235_end" x="40568.076482158154" y="16647.918558261357" type="priority" />
    <node id="node_236_start" x="44126.13349888986" y="17552.836684123613" type="priority" />
    <node id="node_236_end" x="44426.61026618432" y="17635.307580672204" type="priority" />
    <node id="node_237_start" x="49120.88212758768" y="18495.29128981661" type="priority" />
    <node id="node_237_end" x="49187.46940598008" y="18496.53465168178" type="priority" />
    <node id="node_239_start" x="49200.39282933634" y="18496.77827256266" type="priority" />
    <node id="node_24_start" x="221137.15243349946" y="38824.43955709366" type="priority" />
    <node id="node_24_end" x="221198.36954084935" y="38817.43042701483" type="priority" />
    <node id="node_240_start" x="44157.93549480522" y="17545.08285046229" type="priority" />
    <node id="node_240_end" x="44368.26188022678" y="17588.69784485735" type="priority" />
    <node id="node_241_start" x="46503.142037478625" y="18203.856843017973" type="priority" />
    <node id="node_241_end" x="46636.67456852598" y="18240.6620558938" type="priority" />
    <node id="node_242_start" x="47848.71230467071" y="18470.682934702374" type="priority" />
    <node id="node_242_end" x="47984.158399627544" y="18473.39713445492" type="priority" />
    <node id="node_243_start" x="45538.88104331447" y="17939.569454096723" type="priority" />
    <node id="node_244_start" x="44610.75854746858" y="17685.734923404176" type="priority" />
    <node id="node_244_end" x="45376.577138407854" y="17895.242242203094" type="priority" />
    <node id="node_247_end" x="46164.460979995085" y="18110.972927025985" type="priority" />
    <node id="node_248_end" x="48906.06627966149" y="18491.185526408255" type="priority" />
    <node id="node_249_end" x="49054.404251236236" y="18494.086277853232" type="priority" />
    <node id="node_25_start" x="221077.00170023995" y="38831.38126854226" type="priority" />
    <node id="node_25_end" x="221111.97132453008" y="38827.4000851959" type="priority" />
    <node id="node_250_start" x="46505.196186698624" y="18196.722972960677" type="priority" />
    <node id="node_250_end" x="46637.66514075233" y="18237.179813893512" type="priority" />
    <node id="node_252_start" x="46314.302491755574" y="18152.034922784194" type="priority" />
    <node id="node_254_start" x="43416.921335017774" y="17355.029062872753" type="priority" />
    <node id="node_254_end" x="43500.17602870194" y="17374.17807330005" type="priority" />
    <node id="node_26_end" x="229785.1709559108" y="39946.28166661458" type="priority" />
    <node id="node_263_end" x="48906.10683276993" y="18470.33510796819" type="priority" />
    <node id="node_264_start" x="43415.95109075075" y="17358.57306248974" type="priority" />
    <node id="node_264_end" x="43498.265707983286" y="17381.12354146596" type="priority" />
    <node id="node_267_start" x="49950.33972680685" y="18511.434416157193" type="priority" />
    <node id="node_269_end" x="51507.035633046646" y="18542.17558198562" type="priority" />
    <node id="node_270_end" x="49743.84495077934" y="18507.50345781818" type="priority" />
    <node id="node_271_start" x="52512.79598387203" y="18779.474466446787" type="priority" />
    <node id="node_271_end" x="52593.49876578618" y="18807.422707379796" type="priority" />
    <node id="node_272_start" x="55127.948281577555" y="19685.977080920245" type="priority" />
    <node id="node_272_end" x="55166.50120077876" y="19699.339395320043" type="priority" />
    <node id="node_273_start" x="53942.45022744732" y="19275.35353737371" type="priority" />
    <node id="node_274_start" x="49839.56498248759" y="18509.3470857786" type="priority" />
    <node id="node_275_end" x="55999.54850300832" y="19987.902594051324" type="priority" />
    <node id="node_277_end" x="52692.674893785035" y="18841.896827070508" type="priority" />
    <node id="node_278_start" x="54607.66234865843" y="19501.906546738" type="priority" />
    <node id="node_278_end" x="54688.42565582832" y="19526.080030221958" type="priority" />
    <node id="node_28_start" x="230152.12447684992" y="39957.56117031071" type="priority" />
    <node id="node_280_start" x="52905.989001065725" y="18915.99001160683" type="priority" />
    <node id="node_281_end" x="56414.52588142501" y="20131.392843331676" type="priority" />
    <node id="node_285_start" x="54533.4898075026" y="19480.22212305339" type="priority" />
    <node id="node_285_end" x="54606.461907083285" y="19505.397488932125" type="priority" />
    <node id="node_286_end" x="51698.89563999965" y="18511.606211219914" type="priority" />
    <node id="node_289_end" x="53245.17968080111" y="19033.594299074728" type="priority" />
    <node id="node_29_start" x="231128.4926884462" y="39989.62954331981" type="priority" />
    <node id="node_292_start" x="54686.09522143402" y="19532.983452097513" type="priority" />
    <node id="node_293_start" x="52752.71025688015" y="18862.722445537802" type="priority" />
    <node id="node_3_end" x="221577.61459883954" y="38802.07412154367" type="priority" />
    <node id="node_30_end" x="233540.7657859124" y="39868.34359099157" type="priority" />
    <node id="node_301_end" x="53334.818032820476" y="19026.400639413856" type="priority" />
    <node id="node_303_start" x="52595.93860928493" y="18800.397592341993" type="priority" />
    <node id="node_303_end" x="52693.93390051357" y="18838.41545200348" type="priority" />
    <node id="node_304_start" x="53822.13435154059" y="19178.44923764933" type="priority" />
    <node id="node_305_start" x="49839.88975058345" y="18502.452401673887" type="priority" />
    <node id="node_305_end" x="49950.44191076909" y="18507.680617120583" type="priority" />
    <node id="node_306_start" x="57863.66038046614" y="20583.20432451833" type="priority" />
    <node id="node_306_end" x="57977.76340781024" y="20620.03128985176" type="priority" />
    <node id="node_307_end" x="59666.87925253622" y="21164.45481280191" type="priority" />
    <node id="node_308_start" x="56497.15525351325" y="20157.490762507543" type="priority" />
    <node id="node_310_start" x="59785.77384481975" y="21202.76316240942" type="priority" />
    <node id="node_313_end" x="61958.18939501303" y="21879.54191691708" type="priority" />
    <node id="node_314_end" x="61887.45987997786" y="21879.75248125801" type="priority" />
    <node id="node_315_end" x="62641.66787188884" y="22122.773176884744" type="priority" />
    <node id="node_317_start" x="56417.0129805624" y="20124.31473711878" type="priority" />
    <node id="node_317_end" x="56498.143595798174" y="20153.974160945043" type="priority" />
    <node id="node_318_start" x="68642.9116925766" y="22505.52486172924" type="priority" />
    <node id="node_318_end" x="71168.72058516275" y="22690.53375876788" type="priority" />
    <node id="node_319_start" x="67394.57591412053" y="22594.5734996479" type="priority" />
    <node id="node_319_end" x="67462.04670648393" y="22589.74931986211" type="priority" />
    <node id="node_32_end" x="235407.06278246432" y="39918.849103014916" type="priority" />
    <node id="node_320_end" x="63580.66928936739" y="22425.358560136054" type="priority" />
    <node id="node_321_start" x="68629.77087904268" y="22506.41663044272" type="priority" />
    <node id="node_323_start" x="66032.03031454759" y="22662.13559893379" type="priority" />
    <node id="node_324_start" x="67803.21225938853" y="22565.504048637114" type="priority" />
    <node id="node_324_end" x="68019.72418056685" y="22549.94543545693" type="priority" />
    <node id="node_325_start" x="67789.5241419879" y="22566.492707080208" type="priority" />
    <node id="node_326_end" x="65281.218781444244" y="22745.670373373665" type="priority" />
    <node id="node_328_start" x="68086.2678837874" y="22545.253727536183" type="priority" />
    <node id="node_330_end" x="63701.9420500081" y="22464.60166128911" type="priority" />
    <node id="node_331_end" x="65416.41062460607" y="22702.718789374456" type="priority" />
    <node id="node_335_end" x="66094.22842991771" y="22687.561392622534" type="priority" />
    <node id="node_339_start" x="62508.62790976267" y="22030.380655086134" type="priority" />
    <node id="node_343_start" x="72399.64492964721" y="22935.526186183095" type="priority" />
    <node id="node_343_end" x="72413.37980786222" y="22938.20778303733" type="priority" />
    <node id="node_344_start" x="71576.07130582561" y="22771.740553963464" type="priority" />
    <node id="node_344_end" x="71588.89843274688" y="22774.294496682007" type="priority" />
    <node id="node_345_start" x="72226.91335886146" y="22901.196884406265" type="priority" />
    <node id="node_345_end" x="72292.02211267478" y="22914.171475751325" type="priority" />
    <node id="node_346_start" x="72768.14461894776" y="23009.074329127092" type="priority" />
    <node id="node_347_end" x="71905.83762923721" y="22837.224335418083" type="priority" />
    <node id="node_348_end" x="76799.60056583467" y="23021.2375277034" type="priority" />
    <node id="node_35_start" x="234005.352767259" y="39756.413788935635" type="priority" />
    <node id="node_352_start" x="72710.9410812693" y="22968.494913008064" type="priority" />
    <node id="node_354_start" x="71234.17992644827" y="22703.48722380027" type="priority" />
    <node id="node_357_end" x="71909.35035129532" y="22817.914039614145" type="priority" />
    <node id="node_36_start" x="235936.00732511084" y="39908.65178188356" type="priority" />
    <node id="node_361_end" x="72069.09634133906" y="22823.64416563697" type="priority" />
    <node id="node_362_start" x="78203.77103720396" y="22941.47763998015" type="priority" />
    <node id="node_362_end" x="78268.52683545498" y="22937.852334832307" type="priority" />
    <node id="node_363_end" x="80342.14182942873" y="22820.17136167595" type="priority" />
    <node id="node_364_end" x="80780.99985818448" y="22795.56821630057" type="priority" />
    <node id="node_365_start" x="76906.90146933275" y="23015.18058196269" type="priority" />
    <node id="node_365_end" x="78150.75797568192" y="22944.502664363943" type="priority" />
    <node id="node_366_end" x="76851.98606388026" y="23018.311685418244" type="priority" />
    <node id="node_368_start" x="80892.39200900262" y="22789.335122620687" type="priority" />
    <node id="node_368_end" x="81095.3089550793" y="22777.923782793805" type="priority" />
    <node id="node_37_end" x="237245.77767659829" y="39979.47014765395" type="priority" />
    <node id="node_371_start" x="80889.0081876393" y="22737.208851770032" type="priority" />
    <node id="node_371_end" x="81095.07255081646" y="22763.3591707116" type="priority" />
    <node id="node_373_end" x="82761.30214524316" y="22744.812703080475" type="priority" />
    <node id="node_375_start" x="80834.8184578882" y="22792.527009987738" type="priority" />
    <node id="node_379_start" x="80340.99393765535" y="22805.236734187696" type="priority" />
    <node id="node_379_end" x="80527.24722202565" y="22777.55736449035" type="priority" />
    <node id="node_383_end" x="82814.18287390051" y="22754.142958035693" type="priority" />
    <node id="node_384_end" x="82864.3524598945" y="22762.98303272063" type="priority" />
    <node id="node_386_start" x="89411.58992143068" y="23785.71833142545" type="priority" />
    <node id="node_386_end" x="89463.45728126913" y="23792.756176599767" type="priority" />
    <node id="node_387_start" x="92629.97122294083" y="24310.184447107837" type="priority" />
    <node id="node_387_end" x="92776.65619394416" y="24326.18671841314" type="priority" />
    <node id="node_388_end" x="89096.85862605437" y="23728.08117834432" type="priority" />
    <node id="node_389_start" x="90012.80261148594" y="23867.07666138094" type="priority" />
    <node id="node_390_start" x="89095.16022814985" y="23742.709030223545" type="priority" />
    <node id="node_391_end" x="89515.43737266865" y="23799.785637000576" type="priority" />
    <node id="node_393_end" x="92819.27948169305" y="24330.877864412498" type="priority" />
    <node id="node_395_start" x="92976.67782493623" y="24348.09856632538" type="priority" />
    <node id="node_398_end" x="89195.62095175544" y="23730.37149993237" type="priority" />
    <node id="node_4_end" x="221728.22970152507" y="38785.06497413339" type="priority" />
    <node id="node_40_start" x="237887.25010045082" y="39932.50767464703" type="priority" />
    <node id="node_402_start" x="89718.85436472448" y="23743.550087707117" type="priority" />
    <node id="node_405_end" x="102777.11814404908" y="26201.583413875196" type="priority" />
    <node id="node_406_start" x="100666.59127233445" y="25191.41369211441" type="priority" />
    <node id="node_407_end" x="99889.20169601834" y="25105.919420547783" type="priority" />
    <node id="node_409_start" x="100573.74595127907" y="25146.59806231223" type="priority" />
    <node id="node_41_end" x="239993.30167078145" y="40061.139055051375" type="priority" />
    <node id="node_412_end" x="100044.70749960642" y="25086.48166826926" type="priority" />
    <node id="node_414_start" x="104815.52316396381" y="27257.11137526529" type="priority" />
    <node id="node_414_end" x="105060.26572696527" y="27359.065225280356" type="priority" />
    <node id="node_416_start" x="105490.88273154071" y="27538.504129207693" type="priority" />
    <node id="node_417_end" x="106739.49442599504" y="27831.39786705887" type="priority" />
    <node id="node_418_end" x="105003.63407419459" y="27289.723428642377" type="priority" />
    <node id="node_419_start" x="106801.61149130564" y="27831.819558894727" type="priority" />
    <node id="node_419_end" x="107073.45646194939" y="27833.1441438552" type="priority" />
    <node id="node_420_start" x="103588.50815866655" y="26665.369119441602" type="priority" />
    <node id="node_420_end" x="103634.18412314274" y="26691.355447506066" type="priority" />
    <node id="node_421_start" x="105110.1004439732" y="27379.996866022702" type="priority" />
    <node id="node_421_end" x="105240.56815628312" y="27434.436990623828" type="priority" />
    <node id="node_422_start" x="107298.42692099349" y="27833.817849909887" type="priority" />
    <node id="node_422_end" x="109837.6836010192" y="27845.71567002358" type="priority" />
    <node id="node_423_end" x="107167.08524618892" y="27833.43100909004" type="priority" />
    <node id="node_425_start" x="102857.24289999728" y="26247.4756870633" type="priority" />
    <node id="node_427_start" x="107225.7491255831" y="27833.605142390355" type="priority" />
    <node id="node_428_start" x="103748.54014097014" y="26756.747781550046" type="priority" />
    <node id="node_436_start" x="105398.2017065871" y="27460.192080237903" type="priority" />
    <node id="node_438_end" x="109896.0975887333" y="27846.00488247117" type="priority" />
    <node id="node_439_start" x="111612.78604862839" y="27854.486122003756" type="priority" />
    <node id="node_439_end" x="111663.81020488008" y="27854.72363184532" type="priority" />
    <node id="node_440_start" x="111324.77174079651" y="27852.98730687704" type="priority" />
    <node id="node_440_end" x="111376.79915466625" y="27853.25943989493" type="priority" />
    <node id="node_441_start" x="113009.17168648518" y="27861.094229797367" type="priority" />
    <node id="node_441_end" x="113149.25310071523" y="27861.78496263409" type="priority" />
    <node id="node_442_end" x="113325.66238668433" y="27862.65722240135" type="priority" />
    <node id="node_443_start" x="112135.70491078484" y="27856.868517981842" type="priority" />
    <node id="node_445_start" x="111740.97230526502" y="27855.04093767004" type="priority" />
    <node id="node_446_start" x="111273.08765905723" y="27852.719312879257" type="priority" />
    <node id="node_449_end" x="109983.32440567063" y="27846.36921444256" type="priority" />
    <node id="node_453_start" x="119899.35789023188" y="28479.787271296605" type="priority" />
    <node id="node_455_start" x="119675.30070929439" y="28512.218774446286" type="priority" />
    <node id="node_455_end" x="119747.04459952074" y="28515.014881689567" type="priority" />
    <node id="node_456_end" x="119989.16128090769" y="28525.33604478836" type="priority" />
    <node id="node_457_end" x="120089.41080159496" y="28529.586342214607" type="priority" />
    <node id="node_458_start" x="118826.23894976499" y="28477.343696435913" type="priority" />
    <node id="node_458_end" x="119584.50249501923" y="28508.579145974014" type="priority" />
    <node id="node_46_start" x="221047.59652783675" y="38834.65773612121" type="priority" />
    <node id="node_460_end" x="119005.55991659907" y="28444.446450985502" type="priority" />
    <node id="node_461_start" x="114554.96657395014" y="28080.818954211194" type="priority" />
    <node id="node_468_end" x="129068.2270911492" y="28080.71693671774" type="priority" />
    <node id="node_471_start" x="129630.3584245824" y="28093.813337385654" type="priority" />
    <node id="node_472_start" x="129068.1215313205" y="28094.279229762964" type="priority" />
    <node id="node_472_end" x="129104.9969261568" y="28094.25717083225" type="priority" />
    <node id="node_473_start" x="129262.74398521625" y="28094.24155294709" type="priority" />
    <node id="node_473_end" x="129336.46288710157" y="28094.169976888224" type="priority" />
    <node id="node_475_start" x="129416.19118061336" y="28054.215607714374" type="priority" />
    <node id="node_475_end" x="129630.58582552057" y="28081.632766856812" type="priority" />
    <node id="node_476_end" x="129173.40134726337" y="28065.18705157144" type="priority" />
    <node id="node_478_end" x="135073.3024739346" y="27960.414188408293" type="priority" />
    <node id="node_479_end" x="129386.05487245612" y="28094.061696824618" type="priority" />
    <node id="node_484_start" x="136176.82056296582" y="28053.288746594917" type="priority" />
    <node id="node_484_end" x="136877.09491353785" y="28112.456053600647" type="priority" />
    <node id="node_485_start" x="139134.6128249237" y="28494.63097222289" type="priority" />
    <node id="node_485_end" x="139458.53147836635" y="28558.169082019012" type="priority" />
    <node id="node_486_end" x="135163.0803354961" y="27968.028484933544" type="priority" />
    <node id="node_487_start" x="135642.02824418515" y="28008.281010913197" type="priority" />
    <node id="node_487_end" x="136108.50210051902" y="28047.593930445146" type="priority" />
    <node id="node_488_start" x="140961.31171646225" y="28799.671973102726" type="priority" />
    <node id="node_488_end" x="141689.37855597178" y="28828.12312828796" type="priority" />
    <node id="node_489_start" x="139282.80476065225" y="28486.65895983856" type="priority" />
    <node id="node_489_end" x="139461.1958328419" y="28546.78512823768" type="priority" />
    <node id="node_490_end" x="136967.26384701766" y="28120.15888928948" type="priority" />
    <node id="node_492_start" x="138694.00464261428" y="28408.106124037877" type="priority" />
    <node id="node_492_end" x="138718.37696974224" y="28412.859322743956" type="priority" />
    <node id="node_493_start" x="135239.28100902005" y="27974.397947624326" type="priority" />
    <node id="node_493_end" x="135451.71656021418" y="27992.293200185057" type="priority" />
    <node id="node_494_end" x="137019.72000608407" y="28124.560928277206" type="priority" />
    <node id="node_495_end" x="138995.96675699274" y="28467.408015331253" type="priority" />
    <node id="node_497_end" x="138697.15863171057" y="28394.649091408588" type="priority" />
    <node id="node_498_end" x="139066.13787432679" y="28481.303935851436" type="priority" />
    <node id="node_5_end" x="222640.19598396448" y="38919.39570253063" type="priority" />
    <node id="node_501_end" x="138853.84006096818" y="28411.340099276043" type="priority" />
    <node id="node_502_end" x="140878.95707337942" y="28796.49659918016" type="priority" />
    <node id="node_512_start" x="145579.99106078956" y="28082.30316678621" type="priority" />
    <node id="node_512_end" x="146069.6054328949" y="27997.326122908853" type="priority" />