<?xml version="1.0" encoding="UTF-8"?>

<!-- generated on 2025-10-30 02:02:11.722704 by Eclipse SUMO randomTrips.py 23d18e1e9
<configuration>
    <net-file value="/home/sdai/harry/TeraSim/jupiter/eb/map.net.xml"/>
    <output-trip-file value="/home/sdai/harry/TeraSim/jupiter/eb/trips.trips.xml"/>
    <route-file value="/home/sdai/harry/TeraSim/jupiter/eb/vehicles.rou.xml"/>
    <prefix value="vehicle"/>
    <vehicle-class value="passenger"/>
    <length value="True"/>
    <lanes value="True"/>
    <speed-exponent value="5.0"/>
    <fringe-speed-exponent value="5.0"/>
    <fringe-factor value="100"/>
    <allow-fringe value="True"/>
    <seed value="756"/>
    <random value="True"/>
    <validate value="True"/>
    <period value="0.3"/>
</configuration>
-->

<!-- generated on 2025-10-30 02:02:11 by Eclipse SUMO duarouter Version 1.23.1
<duarouterConfiguration xmlns:xsi="http://www.w3.org/2001/XMLSchema-instance" xsi:noNamespaceSchemaLocation="http://sumo.dlr.de/xsd/duarouterConfiguration.xsd">

    <input>
        <net-file value="/home/sdai/harry/TeraSim/jupiter/eb/map.net.xml"/>
        <route-files value="/home/sdai/harry/TeraSim/jupiter/eb/trips.trips.xml"/>
    </input>

    <output>
        <output-file value="/home/sdai/harry/TeraSim/jupiter/eb/trips.trips.xml.tmp"/>
        <alternatives-output value="NUL"/>
        <write-trips value="true"/>
    </output>

    <time>
        <begin value="0"/>
        <end value="3600.0"/>
    </time>

    <report>
        <no-warnings value="true"/>
        <ignore-errors value="true"/>
        <no-step-log value="true"/>
    </report>

</duarouterConfiguration>
-->

<routes xmlns:xsi="http://www.w3.org/2001/XMLSchema-instance" xsi:noNamespaceSchemaLocation="http://sumo.dlr.de/xsd/routes_file.xsd">
    <vType id="vehicle_passenger" vClass="passenger"/>
    <trip id="vehicle2" type="vehicle_passenger" depart="0.60" from="409.0" to="593.0"/>
    <trip id="vehicle10" type="vehicle_passenger" depart="3.00" from="475.0" to="557.0"/>
    <trip id="vehicle13" type="vehicle_passenger" depart="3.90" from="339.0" to="398.0"/>
    <trip id="vehicle14" type="vehicle_passenger" depart="4.20" from="231.0" to="310.0"/>
    <trip id="vehicle16" type="vehicle_passenger" depart="4.80" from="402.0" to="567.0"/>
    <trip id="vehicle17" type="vehicle_passenger" depart="5.10" from="371.0" to="476.0"/>
    <trip id="vehicle21" type="vehicle_passenger" depart="6.30" from="868.0" to="121.0"/>
    <trip id="vehicle22" type="vehicle_passenger" depart="6.60" from="868.0" to="501.0"/>
    <trip id="vehicle23" type="vehicle_passenger" depart="6.90" from="304.0" to="313.0"/>
    <trip id="vehicle25" type="vehicle_passenger" depart="7.50" from="176.0" to="557.0"/>
    <trip id="vehicle28" type="vehicle_passenger" depart="8.40" from="489.0" to="612.0"/>
    <trip id="vehicle30" type="vehicle_passenger" depart="9.00" from="167.0" to="313.0"/>
    <trip id="vehicle31" type="vehicle_passenger" depart="9.30" from="339.0" to="398.0"/>
    <trip id="vehicle32" type="vehicle_passenger" depart="9.60" from="176.0" to="593.0"/>
    <trip id="vehicle33" type="vehicle_passenger" depart="9.90" from="872.0" to="361.0"/>
    <trip id="vehicle34" type="vehicle_passenger" depart="10.20" from="821.0" to="557.0"/>
    <trip id="vehicle35" type="vehicle_passenger" depart="10.50" from="489.0" to="593.0"/>
    <trip id="vehicle37" type="vehicle_passenger" depart="11.10" from="868.0" to="567.0"/>
    <trip id="vehicle39" type="vehicle_passenger" depart="11.70" from="475.0" to="522.0"/>
    <trip id="vehicle44" type="vehicle_passenger" depart="13.20" from="339.0" to="593.0"/>
    <trip id="vehicle47" type="vehicle_passenger" depart="14.10" from="821.0" to="460.0"/>
    <trip id="vehicle49" type="vehicle_passenger" depart="14.70" from="304.0" to="557.0"/>
    <trip id="vehicle50" type="vehicle_passenger" depart="15.00" from="527.0" to="593.0"/>
    <trip id="vehicle51" type="vehicle_passenger" depart="15.30" from="167.0" to="522.0"/>
    <trip id="vehicle52" type="vehicle_passenger" depart="15.60" from="371.0" to="501.0"/>
    <trip id="vehicle53" type="vehicle_passenger" depart="15.90" from="231.0" to="593.0"/>
    <trip id="vehicle54" type="vehicle_passenger" depart="16.20" from="409.0" to="515.0"/>
    <trip id="vehicle55" type="vehicle_passenger" depart="16.50" from="402.0" to="557.0"/>
    <trip id="vehicle56" type="vehicle_passenger" depart="16.80" from="527.0" to="563.0"/>
    <trip id="vehicle57" type="vehicle_passenger" depart="17.10" from="176.0" to="240.0"/>
    <trip id="vehicle61" type="vehicle_passenger" depart="18.30" from="489.0" to="593.0"/>
    <trip id="vehicle62" type="vehicle_passenger" depart="18.60" from="371.0" to="418.0"/>
    <trip id="vehicle63" type="vehicle_passenger" depart="18.90" from="868.0" to="331.0"/>
    <trip id="vehicle64" type="vehicle_passenger" depart="19.20" from="558.0" to="612.0"/>
    <trip id="vehicle65" type="vehicle_passenger" depart="19.50" from="575.0" to="593.0"/>
    <trip id="vehicle66" type="vehicle_passenger" depart="19.80" from="339.0" to="522.0"/>
    <trip id="vehicle67" type="vehicle_passenger" depart="20.10" from="176.0" to="331.0"/>
    <trip id="vehicle68" type="vehicle_passenger" depart="20.40" from="453.0" to="557.0"/>
    <trip id="vehicle76" type="vehicle_passenger" depart="22.80" from="167.0" to="593.0"/>
    <trip id="vehicle77" type="vehicle_passenger" depart="23.10" from="402.0" to="476.0"/>
    <trip id="vehicle78" type="vehicle_passenger" depart="23.40" from="464.0" to="557.0"/>
    <trip id="vehicle81" type="vehicle_passenger" depart="24.30" from="868.0" to="240.0"/>
    <trip id="vehicle82" type="vehicle_passenger" depart="24.60" from="577.0" to="593.0"/>
    <trip id="vehicle85" type="vehicle_passenger" depart="25.50" from="453.0" to="501.0"/>
    <trip id="vehicle89" type="vehicle_passenger" depart="26.70" from="868.0" to="240.0"/>
    <trip id="vehicle90" type="vehicle_passenger" depart="27.00" from="868.0" to="593.0"/>
    <trip id="vehicle93" type="vehicle_passenger" depart="27.90" from="371.0" to="418.0"/>
    <trip id="vehicle98" type="vehicle_passenger" depart="29.40" from="577.0" to="593.0"/>
    <trip id="vehicle100" type="vehicle_passenger" depart="30.00" from="167.0" to="522.0"/>
    <trip id="vehicle102" type="vehicle_passenger" depart="30.60" from="872.0" to="593.0"/>
    <trip id="vehicle103" type="vehicle_passenger" depart="30.90" from="868.0" to="418.0"/>
    <trip id="vehicle105" type="vehicle_passenger" depart="31.50" from="352.0" to="563.0"/>
    <trip id="vehicle107" type="vehicle_passenger" depart="32.10" from="304.0" to="313.0"/>
    <trip id="vehicle109" type="vehicle_passenger" depart="32.70" from="821.0" to="522.0"/>
    <trip id="vehicle112" type="vehicle_passenger" depart="33.60" from="176.0" to="567.0"/>
    <trip id="vehicle113" type="vehicle_passenger" depart="33.90" from="323.0" to="612.0"/>
    <trip id="vehicle115" type="vehicle_passenger" depart="34.50" from="436.0" to="593.0"/>
    <trip id="vehicle116" type="vehicle_passenger" depart="34.80" from="872.0" to="567.0"/>
    <trip id="vehicle119" type="vehicle_passenger" depart="35.70" from="868.0" to="178.0"/>
    <trip id="vehicle120" type="vehicle_passenger" depart="36.00" from="176.0" to="501.0"/>
    <trip id="vehicle122" type="vehicle_passenger" depart="36.60" from="872.0" to="361.0"/>
    <trip id="vehicle128" type="vehicle_passenger" depart="38.40" from="558.0" to="593.0"/>
    <trip id="vehicle130" type="vehicle_passenger" depart="39.00" from="868.0" to="125.0"/>
    <trip id="vehicle131" type="vehicle_passenger" depart="39.30" from="304.0" to="593.0"/>
    <trip id="vehicle132" type="vehicle_passenger" depart="39.60" from="339.0" to="557.0"/>
    <trip id="vehicle133" type="vehicle_passenger" depart="39.90" from="402.0" to="476.0"/>
    <trip id="vehicle135" type="vehicle_passenger" depart="40.50" from="436.0" to="476.0"/>
    <trip id="vehicle136" type="vehicle_passenger" depart="40.80" from="231.0" to="476.0"/>
    <trip id="vehicle138" type="vehicle_passenger" depart="41.40" from="821.0" to="418.0"/>
    <trip id="vehicle141" type="vehicle_passenger" depart="42.30" from="167.0" to="379.0"/>
    <trip id="vehicle144" type="vehicle_passenger" depart="43.20" from="231.0" to="501.0"/>
    <trip id="vehicle146" type="vehicle_passenger" depart="43.80" from="868.0" to="301.0"/>
    <trip id="vehicle148" type="vehicle_passenger" depart="44.40" from="314.0" to="361.0"/>
    <trip id="vehicle149" type="vehicle_passenger" depart="44.70" from="868.0" to="200.0"/>
    <trip id="vehicle150" type="vehicle_passenger" depart="45.00" from="167.0" to="301.0"/>
    <trip id="vehicle151" type="vehicle_passenger" depart="45.30" from="436.0" to="585.0"/>
    <trip id="vehicle155" type="vehicle_passenger" depart="46.50" from="304.0" to="593.0"/>
    <trip id="vehicle158" type="vehicle_passenger" depart="47.40" from="436.0" to="593.0"/>
    <trip id="vehicle159" type="vehicle_passenger" depart="47.70" from="872.0" to="361.0"/>
    <trip id="vehicle160" type="vehicle_passenger" depart="48.00" from="868.0" to="235.0"/>
    <trip id="vehicle163" type="vehicle_passenger" depart="48.90" from="868.0" to="195.0"/>
    <trip id="vehicle164" type="vehicle_passenger" depart="49.20" from="558.0" to="593.0"/>
    <trip id="vehicle166" type="vehicle_passenger" depart="49.80" from="577.0" to="593.0"/>
    <trip id="vehicle167" type="vehicle_passenger" depart="50.10" from="409.0" to="522.0"/>
    <trip id="vehicle172" type="vehicle_passenger" depart="51.60" from="409.0" to="563.0"/>
    <trip id="vehicle179" type="vehicle_passenger" depart="53.70" from="323.0" to="593.0"/>
    <trip id="vehicle190" type="vehicle_passenger" depart="57.00" from="231.0" to="612.0"/>
    <trip id="vehicle191" type="vehicle_passenger" depart="57.30" from="231.0" to="476.0"/>
    <trip id="vehicle199" type="vehicle_passenger" depart="59.70" from="352.0" to="593.0"/>
    <trip id="vehicle205" type="vehicle_passenger" depart="61.50" from="371.0" to="522.0"/>
    <trip id="vehicle206" type="vehicle_passenger" depart="61.80" from="409.0" to="593.0"/>
    <trip id="vehicle207" type="vehicle_passenger" depart="62.10" from="821.0" to="418.0"/>
    <trip id="vehicle208" type="vehicle_passenger" depart="62.40" from="475.0" to="612.0"/>
    <trip id="vehicle210" type="vehicle_passenger" depart="63.00" from="577.0" to="593.0"/>
    <trip id="vehicle211" type="vehicle_passenger" depart="63.30" from="453.0" to="563.0"/>
    <trip id="vehicle212" type="vehicle_passenger" depart="63.60" from="577.0" to="593.0"/>
    <trip id="vehicle214" type="vehicle_passenger" depart="64.20" from="304.0" to="313.0"/>
    <trip id="vehicle216" type="vehicle_passenger" depart="64.80" from="339.0" to="567.0"/>
    <trip id="vehicle217" type="vehicle_passenger" depart="65.10" from="868.0" to="178.0"/>
    <trip id="vehicle218" type="vehicle_passenger" depart="65.40" from="167.0" to="557.0"/>
    <trip id="vehicle220" type="vehicle_passenger" depart="66.00" from="436.0" to="612.0"/>
    <trip id="vehicle221" type="vehicle_passenger" depart="66.30" from="453.0" to="593.0"/>
    <trip id="vehicle222" type="vehicle_passenger" depart="66.60" from="577.0" to="593.0"/>
    <trip id="vehicle223" type="vehicle_passenger" depart="66.90" from="868.0" to="240.0"/>
    <trip id="vehicle224" type="vehicle_passenger" depart="67.20" from="868.0" to="301.0"/>
    <trip id="vehicle226" type="vehicle_passenger" depart="67.80" from="176.0" to="301.0"/>
    <trip id="vehicle228" type="vehicle_passenger" depart="68.40" from="402.0" to="593.0"/>
    <trip id="vehicle229" type="vehicle_passenger" depart="68.70" from="527.0" to="593.0"/>
    <trip id="vehicle231" type="vehicle_passenger" depart="69.30" from="231.0" to="240.0"/>
    <trip id="vehicle233" type="vehicle_passenger" depart="69.90" from="436.0" to="563.0"/>
    <trip id="vehicle235" type="vehicle_passenger" depart="70.50" from="352.0" to="418.0"/>
    <trip id="vehicle236" type="vehicle_passenger" depart="70.80" from="436.0" to="593.0"/>
    <trip id="vehicle239" type="vehicle_passenger" depart="71.70" from="575.0" to="593.0"/>
    <trip id="vehicle241" type="vehicle_passenger" depart="72.30" from="575.0" to="593.0"/>
    <trip id="vehicle244" type="vehicle_passenger" depart="73.20" from="868.0" to="398.0"/>
    <trip id="vehicle245" type="vehicle_passenger" depart="73.50" from="352.0" to="379.0"/>
    <trip id="vehicle247" type="vehicle_passenger" depart="74.10" from="409.0" to="560.0"/>
    <trip id="vehicle250" type="vehicle_passenger" depart="75.00" from="339.0" to="501.0"/>
    <trip id="vehicle252" type="vehicle_passenger" depart="75.60" from="872.0" to="313.0"/>
    <trip id="vehicle254" type="vehicle_passenger" depart="76.20" from="872.0" to="235.0"/>
    <trip id="vehicle255" type="vehicle_passenger" depart="76.50" from="167.0" to="240.0"/>
    <trip id="vehicle256" type="vehicle_passenger" depart="76.80" from="176.0" to="557.0"/>
    <trip id="vehicle257" type="vehicle_passenger" depart="77.10" from="409.0" to="567.0"/>
    <trip id="vehicle258" type="vehicle_passenger" depart="77.40" from="176.0" to="612.0"/>
    <trip id="vehicle261" type="vehicle_passenger" depart="78.30" from="167.0" to="331.0"/>
    <trip id="vehicle262" type="vehicle_passenger" depart="78.60" from="304.0" to="567.0"/>
    <trip id="vehicle264" type="vehicle_passenger" depart="79.20" from="304.0" to="398.0"/>
    <trip id="vehicle265" type="vehicle_passenger" depart="79.50" from="868.0" to="522.0"/>
    <trip id="vehicle266" type="vehicle_passenger" depart="79.80" from="176.0" to="398.0"/>
    <trip id="vehicle267" type="vehicle_passenger" depart="80.10" from="821.0" to="286.0"/>
    <trip id="vehicle268" type="vehicle_passenger" depart="80.40" from="371.0" to="418.0"/>
    <trip id="vehicle271" type="vehicle_passenger" depart="81.30" from="577.0" to="593.0"/>
    <trip id="vehicle273" type="vehicle_passenger" depart="81.90" from="167.0" to="593.0"/>
    <trip id="vehicle278" type="vehicle_passenger" depart="83.40" from="395.0" to="557.0"/>
    <trip id="vehicle281" type="vehicle_passenger" depart="84.30" from="304.0" to="361.0"/>
    <trip id="vehicle282" type="vehicle_passenger" depart="84.60" from="231.0" to="398.0"/>
    <trip id="vehicle284" type="vehicle_passenger" depart="85.20" from="489.0" to="522.0"/>
    <trip id="vehicle286" type="vehicle_passenger" depart="85.80" from="489.0" to="593.0"/>
    <trip id="vehicle289" type="vehicle_passenger" depart="86.70" from="371.0" to="418.0"/>
    <trip id="vehicle291" type="vehicle_passenger" depart="87.30" from="872.0" to="148.0"/>
    <trip id="vehicle292" type="vehicle_passenger" depart="87.60" from="436.0" to="593.0"/>
    <trip id="vehicle294" type="vehicle_passenger" depart="88.20" from="231.0" to="563.0"/>
    <trip id="vehicle295" type="vehicle_passenger" depart="88.50" from="436.0" to="593.0"/>
    <trip id="vehicle296" type="vehicle_passenger" depart="88.80" from="868.0" to="168.0"/>
    <trip id="vehicle297" type="vehicle_passenger" depart="89.10" from="371.0" to="476.0"/>
    <trip id="vehicle298" type="vehicle_passenger" depart="89.40" from="176.0" to="361.0"/>
    <trip id="vehicle300" type="vehicle_passenger" depart="90.00" from="436.0" to="612.0"/>
    <trip id="vehicle301" type="vehicle_passenger" depart="90.30" from="371.0" to="593.0"/>
    <trip id="vehicle303" type="vehicle_passenger" depart="90.90" from="409.0" to="593.0"/>
    <trip id="vehicle305" type="vehicle_passenger" depart="91.50" from="577.0" to="593.0"/>
    <trip id="vehicle306" type="vehicle_passenger" depart="91.80" from="176.0" to="557.0"/>
    <trip id="vehicle307" type="vehicle_passenger" depart="92.10" from="872.0" to="460.0"/>
    <trip id="vehicle310" type="vehicle_passenger" depart="93.00" from="231.0" to="331.0"/>
    <trip id="vehicle311" type="vehicle_passenger" depart="93.30" from="167.0" to="567.0"/>
    <trip id="vehicle312" type="vehicle_passenger" depart="93.60" from="231.0" to="331.0"/>
    <trip id="vehicle317" type="vehicle_passenger" depart="95.10" from="872.0" to="593.0"/>
    <trip id="vehicle318" type="vehicle_passenger" depart="95.40" from="167.0" to="286.0"/>
    <trip id="vehicle320" type="vehicle_passenger" depart="96.00" from="371.0" to="398.0"/>
    <trip id="vehicle323" type="vehicle_passenger" depart="96.90" from="475.0" to="593.0"/>
    <trip id="vehicle324" type="vehicle_passenger" depart="97.20" from="167.0" to="301.0"/>
    <trip id="vehicle325" type="vehicle_passenger" depart="97.50" from="275.0" to="460.0"/>
    <trip id="vehicle326" type="vehicle_passenger" depart="97.80" from="371.0" to="593.0"/>
    <trip id="vehicle327" type="vehicle_passenger" depart="98.10" from="231.0" to="557.0"/>
    <trip id="vehicle330" type="vehicle_passenger" depart="99.00" from="402.0" to="476.0"/>
    <trip id="vehicle331" type="vehicle_passenger" depart="99.30" from="231.0" to="412.0"/>
    <trip id="vehicle332" type="vehicle_passenger" depart="99.60" from="489.0" to="563.0"/>
    <trip id="vehicle335" type="vehicle_passenger" depart="100.50" from="231.0" to="593.0"/>
    <trip id="vehicle336" type="vehicle_passenger" depart="100.80" from="352.0" to="567.0"/>
    <trip id="vehicle338" type="vehicle_passenger" depart="101.40" from="868.0" to="593.0"/>
    <trip id="vehicle339" type="vehicle_passenger" depart="101.70" from="409.0" to="593.0"/>
    <trip id="vehicle341" type="vehicle_passenger" depart="102.30" from="475.0" to="612.0"/>
    <trip id="vehicle343" type="vehicle_passenger" depart="102.90" from="436.0" to="593.0"/>
    <trip id="vehicle345" type="vehicle_passenger" depart="103.50" from="821.0" to="593.0"/>
    <trip id="vehicle347" type="vehicle_passenger" depart="104.10" from="133.0" to="286.0"/>
    <trip id="vehicle348" type="vehicle_passenger" depart="104.40" from="167.0" to="567.0"/>
    <trip id="vehicle349" type="vehicle_passenger" depart="104.70" from="868.0" to="593.0"/>
    <trip id="vehicle350" type="vehicle_passenger" depart="105.00" from="339.0" to="593.0"/>
    <trip id="vehicle353" type="vehicle_passenger" depart="105.90" from="371.0" to="476.0"/>
    <trip id="vehicle358" type="vehicle_passenger" depart="107.40" from="436.0" to="460.0"/>
    <trip id="vehicle359" type="vehicle_passenger" depart="107.70" from="868.0" to="331.0"/>
    <trip id="vehicle360" type="vehicle_passenger" depart="108.00" from="868.0" to="148.0"/>
    <trip id="vehicle362" type="vehicle_passenger" depart="108.60" from="352.0" to="412.0"/>
    <trip id="vehicle364" type="vehicle_passenger" depart="109.20" from="167.0" to="460.0"/>
    <trip id="vehicle365" type="vehicle_passenger" depart="109.50" from="821.0" to="398.0"/>
    <trip id="vehicle366" type="vehicle_passenger" depart="109.80" from="352.0" to="593.0"/>
    <trip id="vehicle367" type="vehicle_passenger" depart="110.10" from="868.0" to="501.0"/>
    <trip id="vehicle368" type="vehicle_passenger" depart="110.40" from="868.0" to="501.0"/>
    <trip id="vehicle369" type="vehicle_passenger" depart="110.70" from="247.0" to="412.0"/>
    <trip id="vehicle370" type="vehicle_passenger" depart="111.00" from="167.0" to="235.0"/>
    <trip id="vehicle372" type="vehicle_passenger" depart="111.60" from="323.0" to="593.0"/>
    <trip id="vehicle373" type="vehicle_passenger" depart="111.90" from="304.0" to="593.0"/>
    <trip id="vehicle378" type="vehicle_passenger" depart="113.40" from="339.0" to="331.0"/>
    <trip id="vehicle380" type="vehicle_passenger" depart="114.00" from="575.0" to="593.0"/>
    <trip id="vehicle383" type="vehicle_passenger" depart="114.90" from="304.0" to="331.0"/>
    <trip id="vehicle385" type="vehicle_passenger" depart="115.50" from="821.0" to="361.0"/>
    <trip id="vehicle388" type="vehicle_passenger" depart="116.40" from="176.0" to="200.0"/>
    <trip id="vehicle390" type="vehicle_passenger" depart="117.00" from="304.0" to="563.0"/>
    <trip id="vehicle391" type="vehicle_passenger" depart="117.30" from="167.0" to="200.0"/>
    <trip id="vehicle393" type="vehicle_passenger" depart="117.90" from="436.0" to="501.0"/>
    <trip id="vehicle395" type="vehicle_passenger" depart="118.50" from="176.0" to="612.0"/>
    <trip id="vehicle396" type="vehicle_passenger" depart="118.80" from="868.0" to="168.0"/>
    <trip id="vehicle397" type="vehicle_passenger" depart="119.10" from="821.0" to="593.0"/>
    <trip id="vehicle402" type="vehicle_passenger" depart="120.60" from="231.0" to="522.0"/>
    <trip id="vehicle403" type="vehicle_passenger" depart="120.90" from="176.0" to="593.0"/>
    <trip id="vehicle404" type="vehicle_passenger" depart="121.20" from="167.0" to="476.0"/>
    <trip id="vehicle405" type="vehicle_passenger" depart="121.50" from="339.0" to="593.0"/>
    <trip id="vehicle406" type="vehicle_passenger" depart="121.80" from="868.0" to="195.0"/>
    <trip id="vehicle409" type="vehicle_passenger" depart="122.70" from="868.0" to="522.0"/>
    <trip id="vehicle410" type="vehicle_passenger" depart="123.00" from="231.0" to="476.0"/>
    <trip id="vehicle411" type="vehicle_passenger" depart="123.30" from="167.0" to="612.0"/>
    <trip id="vehicle412" type="vehicle_passenger" depart="123.60" from="872.0" to="522.0"/>
    <trip id="vehicle414" type="vehicle_passenger" depart="124.20" from="409.0" to="593.0"/>
    <trip id="vehicle415" type="vehicle_passenger" depart="124.50" from="872.0" to="412.0"/>
    <trip id="vehicle417" type="vehicle_passenger" depart="125.10" from="872.0" to="263.0"/>
    <trip id="vehicle420" type="vehicle_passenger" depart="126.00" from="558.0" to="612.0"/>
    <trip id="vehicle421" type="vehicle_passenger" depart="126.30" from="371.0" to="593.0"/>
    <trip id="vehicle422" type="vehicle_passenger" depart="126.60" from="449.0" to="593.0"/>
    <trip id="vehicle425" type="vehicle_passenger" depart="127.50" from="575.0" to="593.0"/>
    <trip id="vehicle427" type="vehicle_passenger" depart="128.10" from="339.0" to="412.0"/>
    <trip id="vehicle428" type="vehicle_passenger" depart="128.40" from="352.0" to="612.0"/>
    <trip id="vehicle429" type="vehicle_passenger" depart="128.70" from="872.0" to="331.0"/>
    <trip id="vehicle430" type="vehicle_passenger" depart="129.00" from="304.0" to="557.0"/>
    <trip id="vehicle432" type="vehicle_passenger" depart="129.60" from="821.0" to="593.0"/>
    <trip id="vehicle435" type="vehicle_passenger" depart="130.50" from="436.0" to="593.0"/>
    <trip id="vehicle440" type="vehicle_passenger" depart="132.00" from="371.0" to="593.0"/>
    <trip id="vehicle441" type="vehicle_passenger" depart="132.30" from="868.0" to="567.0"/>
    <trip id="vehicle442" type="vehicle_passenger" depart="132.60" from="872.0" to="476.0"/>
    <trip id="vehicle443" type="vehicle_passenger" depart="132.90" from="339.0" to="522.0"/>
    <trip id="vehicle444" type="vehicle_passenger" depart="133.20" from="436.0" to="563.0"/>
    <trip id="vehicle449" type="vehicle_passenger" depart="134.70" from="868.0" to="593.0"/>
    <trip id="vehicle451" type="vehicle_passenger" depart="135.30" from="231.0" to="379.0"/>
    <trip id="vehicle453" type="vehicle_passenger" depart="135.90" from="167.0" to="418.0"/>
    <trip id="vehicle455" type="vehicle_passenger" depart="136.50" from="352.0" to="398.0"/>
    <trip id="vehicle456" type="vehicle_passenger" depart="136.80" from="231.0" to="593.0"/>
    <trip id="vehicle458" type="vehicle_passenger" depart="137.40" from="575.0" to="593.0"/>
    <trip id="vehicle460" type="vehicle_passenger" depart="138.00" from="176.0" to="593.0"/>
    <trip id="vehicle461" type="vehicle_passenger" depart="138.30" from="304.0" to="313.0"/>
    <trip id="vehicle464" type="vehicle_passenger" depart="139.20" from="352.0" to="460.0"/>
    <trip id="vehicle465" type="vehicle_passenger" depart="139.50" from="323.0" to="563.0"/>
    <trip id="vehicle466" type="vehicle_passenger" depart="139.80" from="489.0" to="593.0"/>
    <trip id="vehicle468" type="vehicle_passenger" depart="140.40" from="558.0" to="612.0"/>
    <trip id="vehicle469" type="vehicle_passenger" depart="140.70" from="868.0" to="612.0"/>
    <trip id="vehicle470" type="vehicle_passenger" depart="141.00" from="176.0" to="235.0"/>
    <trip id="vehicle474" type="vehicle_passenger" depart="142.20" from="231.0" to="240.0"/>
    <trip id="vehicle478" type="vehicle_passenger" depart="143.40" from="577.0" to="593.0"/>
    <trip id="vehicle480" type="vehicle_passenger" depart="144.00" from="371.0" to="563.0"/>
    <trip id="vehicle485" type="vehicle_passenger" depart="145.50" from="872.0" to="148.0"/>
    <trip id="vehicle487" type="vehicle_passenger" depart="146.10" from="453.0" to="516.0"/>
    <trip id="vehicle490" type="vehicle_passenger" depart="147.00" from="868.0" to="379.0"/>
    <trip id="vehicle492" type="vehicle_passenger" depart="147.60" from="231.0" to="593.0"/>
    <trip id="vehicle493" type="vehicle_passenger" depart="147.90" from="436.0" to="612.0"/>
    <trip id="vehicle494" type="vehicle_passenger" depart="148.20" from="868.0" to="612.0"/>
    <trip id="vehicle495" type="vehicle_passenger" depart="148.50" from="176.0" to="331.0"/>
    <trip id="vehicle498" type="vehicle_passenger" depart="149.40" from="231.0" to="593.0"/>
    <trip id="vehicle500" type="vehicle_passenger" depart="150.00" from="872.0" to="263.0"/>
    <trip id="vehicle502" type="vehicle_passenger" depart="150.60" from="868.0" to="593.0"/>
    <trip id="vehicle505" type="vehicle_passenger" depart="151.50" from="868.0" to="593.0"/>
    <trip id="vehicle506" type="vehicle_passenger" depart="151.80" from="167.0" to="522.0"/>
    <trip id="vehicle511" type="vehicle_passenger" depart="153.30" from="167.0" to="286.0"/>
    <trip id="vehicle512" type="vehicle_passenger" depart="153.60" from="402.0" to="418.0"/>
    <trip id="vehicle514" type="vehicle_passenger" depart="154.20" from="475.0" to="593.0"/>
    <trip id="vehicle516" type="vehicle_passenger" depart="154.80" from="352.0" to="522.0"/>
    <trip id="vehicle520" type="vehicle_passenger" depart="156.00" from="167.0" to="240.0"/>
    <trip id="vehicle522" type="vehicle_passenger" depart="156.60" from="402.0" to="501.0"/>
    <trip id="vehicle523" type="vehicle_passenger" depart="156.90" from="167.0" to="593.0"/>
    <trip id="vehicle524" type="vehicle_passenger" depart="157.20" from="339.0" to="379.0"/>
    <trip id="vehicle528" type="vehicle_passenger" depart="158.40" from="453.0" to="593.0"/>
    <trip id="vehicle530" type="vehicle_passenger" depart="159.00" from="339.0" to="418.0"/>
    <trip id="vehicle531" type="vehicle_passenger" depart="159.30" from="868.0" to="195.0"/>
    <trip id="vehicle536" type="vehicle_passenger" depart="160.80" from="453.0" to="593.0"/>
    <trip id="vehicle537" type="vehicle_passenger" depart="161.10" from="489.0" to="557.0"/>
    <trip id="vehicle538" type="vehicle_passenger" depart="161.40" from="872.0" to="522.0"/>
    <trip id="vehicle540" type="vehicle_passenger" depart="162.00" from="167.0" to="398.0"/>
    <trip id="vehicle541" type="vehicle_passenger" depart="162.30" from="489.0" to="522.0"/>
    <trip id="vehicle544" type="vehicle_passenger" depart="163.20" from="436.0" to="557.0"/>
    <trip id="vehicle545" type="vehicle_passenger" depart="163.50" from="402.0" to="612.0"/>
    <trip id="vehicle547" type="vehicle_passenger" depart="164.10" from="352.0" to="418.0"/>
    <trip id="vehicle548" type="vehicle_passenger" depart="164.40" from="402.0" to="563.0"/>
    <trip id="vehicle549" type="vehicle_passenger" depart="164.70" from="231.0" to="290.0"/>
    <trip id="vehicle550" type="vehicle_passenger" depart="165.00" from="304.0" to="398.0"/>
    <trip id="vehicle551" type="vehicle_passenger" depart="165.30" from="821.0" to="240.0"/>
    <trip id="vehicle552" type="vehicle_passenger" depart="165.60" from="821.0" to="313.0"/>
    <trip id="vehicle555" type="vehicle_passenger" depart="166.50" from="371.0" to="593.0"/>
    <trip id="vehicle556" type="vehicle_passenger" depart="166.80" from="868.0" to="313.0"/>
    <trip id="vehicle558" type="vehicle_passenger" depart="167.40" from="475.0" to="593.0"/>
    <trip id="vehicle559" type="vehicle_passenger" depart="167.70" from="371.0" to="557.0"/>
    <trip id="vehicle560" type="vehicle_passenger" depart="168.00" from="868.0" to="398.0"/>
    <trip id="vehicle561" type="vehicle_passenger" depart="168.30" from="821.0" to="301.0"/>
    <trip id="vehicle563" type="vehicle_passenger" depart="168.90" from="872.0" to="593.0"/>
    <trip id="vehicle565" type="vehicle_passenger" depart="169.50" from="176.0" to="593.0"/>
    <trip id="vehicle566" type="vehicle_passenger" depart="169.80" from="333.0" to="522.0"/>
    <trip id="vehicle567" type="vehicle_passenger" depart="170.10" from="323.0" to="593.0"/>
    <trip id="vehicle569" type="vehicle_passenger" depart="170.70" from="167.0" to="593.0"/>
    <trip id="vehicle570" type="vehicle_passenger" depart="171.00" from="577.0" to="593.0"/>
    <trip id="vehicle571" type="vehicle_passenger" depart="171.30" from="323.0" to="593.0"/>
    <trip id="vehicle572" type="vehicle_passenger" depart="171.60" from="231.0" to="313.0"/>
    <trip id="vehicle574" type="vehicle_passenger" depart="172.20" from="371.0" to="567.0"/>
    <trip id="vehicle575" type="vehicle_passenger" depart="172.50" from="872.0" to="379.0"/>
    <trip id="vehicle576" type="vehicle_passenger" depart="172.80" from="613.0" to="612.0"/>
    <trip id="vehicle578" type="vehicle_passenger" depart="173.40" from="281.0" to="398.0"/>
    <trip id="vehicle579" type="vehicle_passenger" depart="173.70" from="231.0" to="612.0"/>
    <trip id="vehicle581" type="vehicle_passenger" depart="174.30" from="176.0" to="501.0"/>
    <trip id="vehicle582" type="vehicle_passenger" depart="174.60" from="231.0" to="361.0"/>
    <trip id="vehicle583" type="vehicle_passenger" depart="174.90" from="613.0" to="593.0"/>
    <trip id="vehicle592" type="vehicle_passenger" depart="177.60" from="304.0" to="313.0"/>