<?xml version='1.0' encoding='utf-8'?>
<connections>
    <connection from="406.0" to="405.0" fromLane="1" toLane="2" />
    <connection from="406.0" to="405.0" fromLane="0" toLane="1" />
    <connection from="395.0" to="412.0" fromLane="1" toLane="0" />
    <connection from="395.0" to="407.0" fromLane="1" toLane="0" />
    <connection from="395.0" to="407.0" fromLane="2" toLane="1" />
</connections>