<?xml version="1.0" encoding="UTF-8"?>

<!-- generated on 2025-10-19 17:35:17 by Eclipse SUMO netconvert Version 1.23.1
<netconvertConfiguration xmlns:xsi="http://www.w3.org/2001/XMLSchema-instance" xsi:noNamespaceSchemaLocation="http://sumo.dlr.de/xsd/netconvertConfiguration.xsd">

    <input>
        <node-files value="/home/sdai/harry/TeraSim/jupiter/eb/jupiter_eb_tiles/tile_0063/tile_0063.nod.xml"/>
        <edge-files value="/home/sdai/harry/TeraSim/jupiter/eb/jupiter_eb_tiles/tile_0063/tile_0063.edg.xml"/>
        <connection-files value="/home/sdai/harry/TeraSim/jupiter/eb/jupiter_eb_tiles/tile_0063/tile_0063.con.xml"/>
    </input>

    <output>
        <output-file value="/home/sdai/harry/TeraSim/jupiter/eb/jupiter_eb_tiles/tile_0063/tile_0063.net.xml"/>
        <output.street-names value="true"/>
        <output.original-names value="true"/>
    </output>

    <processing>
        <geometry.remove value="false"/>
        <geometry.min-dist value="0.5"/>
        <edges.join value="false"/>
    </processing>

    <junctions>
        <no-internal-links value="false"/>
        <no-turnarounds value="true"/>
        <junctions.join value="true"/>
        <junctions.join-dist value="10"/>
        <junctions.corner-detail value="5"/>
        <junctions.internal-link-detail value="5"/>
        <junctions.limit-turn-speed value="5.5"/>
        <rectangular-lane-cut value="true"/>
        <check-lane-foes.all value="true"/>
    </junctions>

</netconvertConfiguration>
-->

<net version="1.20" junctionCornerDetail="5" junctionLinkDetail="5" rectangularLaneCut="true" limitTurnSpeed="5.50" checkLaneFoesAll="1" xmlns:xsi="http://www.w3.org/2001/XMLSchema-instance" xsi:noNamespaceSchemaLocation="http://sumo.dlr.de/xsd/net_file.xsd">

    <location netOffset="-656863.72,-3282517.94" convBoundary="0.00,0.00,11687.18,2845.65" origBoundary="0.00,0.00,668550.90,3285363.59" projParameter="!"/>

    <edge id=":junction_27_0" function="internal">
        <lane id=":junction_27_0_0" index="0" speed="13.89" length="150.20" width="3.66" shape="7746.24,839.78 7769.44,843.29 7816.84,850.01 7866.13,856.90 7894.95,860.88"/>
    </edge>
    <edge id=":junction_27_1" function="internal">
        <lane id=":junction_27_1_0" index="0" speed="13.89" length="150.34" width="3.66" shape="7745.53,843.88 7894.95,860.88"/>
        <lane id=":junction_27_1_1" index="1" speed="13.89" length="150.34" width="3.66" shape="7745.13,847.52 7894.46,864.50"/>
    </edge>
    <edge id=":junction_83_0" function="internal">
        <lane id=":junction_83_0_0" index="0" speed="13.89" length="66.00" width="3.66" shape="6754.45,734.97 6820.37,738.28"/>
    </edge>
    <edge id=":junction_83_1" function="internal">
        <lane id=":junction_83_1_0" index="0" speed="13.89" length="66.04" width="3.66" shape="6754.45,734.97 6820.08,742.21"/>
        <lane id=":junction_83_1_1" index="1" speed="13.89" length="66.04" width="3.66" shape="6754.05,738.61 6819.69,745.85"/>
    </edge>
    <edge id=":node_405_end_0" function="internal">
        <lane id=":node_405_end_0_0" index="0" speed="13.89" length="0.30" width="3.66" shape="9803.04,1848.64 9803.30,1848.79"/>
        <lane id=":node_405_end_0_1" index="1" speed="13.89" length="0.30" width="3.66" shape="9801.23,1851.82 9801.48,1851.96"/>
    </edge>
    <edge id=":node_406_start_0" function="internal">
        <lane id=":node_406_start_0_0" index="0" speed="13.89" length="3.00" width="3.66" shape="7689.03,837.69 7692.02,838.02"/>
        <lane id=":node_406_start_0_1" index="1" speed="13.89" length="3.00" width="3.66" shape="7688.63,841.33 7691.61,841.66"/>
    </edge>
    <edge id=":node_407_end_0" function="internal">
        <lane id=":node_407_end_0_0" index="0" speed="13.89" length="3.00" width="3.66" shape="6911.63,752.20 6914.61,752.52"/>
        <lane id=":node_407_end_0_1" index="1" speed="13.89" length="3.00" width="3.66" shape="6911.24,755.84 6914.22,756.16"/>
    </edge>
    <edge id=":node_420_end_0" function="internal">
        <lane id=":node_420_end_0_0" index="0" speed="13.89" length="0.30" width="3.66" shape="10660.10,2338.42 10660.36,2338.57"/>
        <lane id=":node_420_end_0_1" index="1" speed="13.89" length="0.30" width="3.66" shape="10658.29,2341.60 10658.55,2341.74"/>
    </edge>
    <edge id=":node_420_start_0" function="internal">
        <lane id=":node_420_start_0_0" index="0" speed="13.89" length="0.30" width="3.66" shape="10614.43,2312.43 10614.69,2312.57"/>
        <lane id=":node_420_start_0_1" index="1" speed="13.89" length="0.30" width="3.66" shape="10612.61,2315.61 10612.88,2315.76"/>
    </edge>
    <edge id=":node_425_start_0" function="internal">
        <lane id=":node_425_start_0_0" index="0" speed="13.89" length="0.30" width="3.66" shape="9883.17,1894.54 9883.42,1894.69"/>
        <lane id=":node_425_start_0_1" index="1" speed="13.89" length="0.30" width="3.66" shape="9881.35,1897.72 9881.61,1897.87"/>
    </edge>
    <edge id=":node_428_start_0" function="internal">
        <lane id=":node_428_start_0_0" index="0" speed="13.89" length="0.30" width="3.66" shape="10774.47,2403.81 10774.73,2403.96"/>
        <lane id=":node_428_start_0_1" index="1" speed="13.89" length="0.30" width="3.66" shape="10772.65,2406.99 10772.91,2407.14"/>
    </edge>

    <edge id="395.0" from="node_395_start" to="junction_83" priority="-1" type="town" shape="0.00,0.00 13.11,1.42 26.77,2.87 37.40,4.04 55.12,5.97 71.28,7.74 92.07,10.03 105.86,11.50 119.70,13.02 136.09,14.78 150.02,16.27 163.07,17.67 177.33,19.22 191.93,20.80 204.77,22.20 218.96,23.75 230.37,25.02 243.26,26.43 255.36,27.79 270.48,29.44 283.04,30.82 297.56,32.42 310.04,33.78 321.89,35.10 334.38,36.51 348.75,38.08 363.22,39.69 377.10,41.23 387.68,42.40 400.17,43.77 409.18,44.75 421.70,46.10 428.44,46.84 442.92,48.42 458.40,50.13 472.27,51.65 486.95,53.26 499.32,54.62 510.43,55.83 522.35,57.16 533.47,58.40 544.03,59.56 555.18,60.75 568.07,62.18 583.23,63.87 605.28,66.33 630.08,69.07 654.78,71.73 674.24,73.85 688.88,75.48 706.00,77.35 723.30,79.20 740.59,81.08 761.04,83.29 778.07,85.13 794.80,86.94 810.97,88.69 826.70,90.46 844.97,92.49 860.48,94.22 879.52,96.28 896.76,98.19 913.94,100.08 934.76,102.32 953.65,104.40 975.60,106.78 998.48,109.29 1019.80,111.63 1039.75,113.79 1059.06,115.93 1080.51,118.27 1103.58,120.82 1127.53,123.42 1152.49,126.18 1175.04,128.67 1195.10,130.92 1215.24,133.16 1238.17,135.69 1262.15,138.31 1282.90,140.56 1305.52,143.01 1330.72,145.77 1350.89,147.97 1367.31,149.77 1388.83,152.14 1410.01,154.49 1433.32,157.02 1450.46,158.93 1473.04,161.35 1494.04,163.67 1511.92,165.62 1530.19,167.66 1542.15,168.93 1558.51,170.75 1572.92,172.33 1590.79,174.29 1603.94,175.72 1611.44,176.56 1629.83,178.56 1648.06,180.59 1665.01,182.41 1680.19,184.06 1694.31,185.59 1708.89,187.15 1720.57,188.46 1733.29,189.88 1747.34,191.42 1758.53,192.66 1772.77,194.22 1780.24,195.02 1786.76,195.75 1793.18,196.42 1800.02,197.19 1806.87,197.92 1812.44,198.56 1819.41,199.31 1825.80,200.01 1832.21,200.70 1838.03,201.35 1846.14,202.20 1852.46,202.89 1859.90,203.68 1864.84,204.20 1872.03,204.98 1877.42,205.54 1883.47,206.20 1890.05,206.91 1897.46,207.73 1903.95,208.43 1910.39,209.12 1916.85,209.83 1924.19,210.61 1930.45,211.30 1937.90,212.10 1944.09,212.77 1949.57,213.38 1954.36,213.90 1961.45,214.69 1967.73,215.39 1973.73,216.05 1979.39,216.65 1985.45,217.34 1991.32,217.96 1996.51,218.56 2000.46,218.97 2005.64,219.51 2011.26,220.13 2016.96,220.78 2023.59,221.52 2027.95,222.00 2033.02,222.57 2037.37,223.07 2043.16,223.69 2048.29,224.24 2053.92,224.85 2059.12,225.42 2063.89,225.94 2068.45,226.45 2073.17,226.94 2078.14,227.51 2084.33,228.17 2091.89,228.99 2097.50,229.63 2103.29,230.24 2108.85,230.82 2115.95,231.60 2121.63,232.20 2128.36,232.93 2137.88,233.98 2148.35,235.11 2155.89,235.96 2167.72,237.25 2180.21,238.66 2190.16,239.74 2201.33,240.98 2208.68,241.76 2216.55,242.61 2225.21,243.54 2235.99,244.75 2244.48,245.68 2251.16,246.41 2258.76,247.24 2262.45,247.66 2271.89,248.68 2283.96,249.99 2293.69,251.06 2305.04,252.30 2313.54,253.21 2324.20,254.38 2332.71,255.32 2361.17,258.44 2383.30,260.85 2392.17,261.82 2409.01,263.67 2421.68,265.06 2439.38,266.99 2458.00,269.10 2472.93,270.69 2487.65,272.33 2505.51,274.28 2522.59,276.12 2537.90,277.81 2553.67,279.54 2573.17,281.61 2589.89,283.47 2604.95,285.14 2621.80,287.03 2638.71,288.90 2655.82,290.77 2673.22,292.73 2689.98,294.60 2706.39,296.42 2723.82,298.34 2739.87,300.07 2756.67,301.89 2775.97,304.03 2795.49,306.14 2813.47,308.09 2834.33,310.34 2851.55,312.26 2867.02,313.92 2885.15,315.89 2903.49,317.90 2919.26,319.59 2934.58,321.30 2952.67,323.27 2970.83,325.25 2986.51,326.99 3003.88,328.90 3019.27,330.61 3032.06,332.00 3049.00,333.90 3065.08,335.67 3082.25,337.58 3100.55,339.55 3118.39,341.54 3139.28,343.85 3157.79,345.90 3173.94,347.67 3189.39,349.31 3199.88,350.48 3213.43,351.94 3226.31,353.34 3241.04,354.97 3255.33,356.48 3265.65,357.64 3277.16,358.87 3289.84,360.26 3301.42,361.54 3314.92,363.00 3326.49,364.22 3341.98,365.91 3356.37,367.45 3370.28,368.98 3382.73,370.32 3395.53,371.71 3410.28,373.32 3422.74,374.69 3435.64,376.11 3448.64,377.54 3461.86,379.00 3475.24,380.43 3487.85,381.86 3498.46,383.04 3522.47,385.62 3544.22,388.01 3567.09,390.57 3595.43,393.72 3619.16,396.37 3641.71,398.82 3664.73,401.35 3686.70,403.74 3704.67,405.73 3727.74,408.23 3749.22,410.56 3770.18,412.88 3791.00,415.13 3811.69,417.37 3829.29,419.27 3855.90,422.14 3878.88,424.57 3900.31,426.87 3923.42,429.35 3947.13,431.95 3968.23,434.23 3991.17,436.75 4011.21,439.00 4031.60,441.25 4051.42,443.41 4071.47,445.61 4089.67,447.59 4108.92,449.75 4130.75,452.08 4153.30,454.57 4178.47,457.31 4206.56,460.44 4230.53,463.04 4256.63,465.87 4280.69,468.55 4305.01,471.22 4329.31,473.93 4356.10,476.89 4386.10,480.21 4408.24,482.66 4431.28,485.20 4450.83,487.30 4475.44,489.99 4499.66,492.65 4523.24,495.23 4548.06,497.94 4569.86,500.33 4593.70,502.92 4617.65,505.56 4642.76,508.33 4660.00,510.28 4683.58,512.85 4707.14,515.42 4732.87,518.27 4754.24,520.62 4775.51,522.95 4796.15,525.18 4817.83,527.60 4841.68,530.23 4866.56,532.97 4893.91,535.97 4924.93,539.38 4953.86,542.58 4982.84,545.75 5007.71,548.51 5034.21,551.42 5055.07,553.69 5085.06,556.90 5114.02,560.12 5142.68,563.18 5170.16,566.17 5197.12,569.11 5223.40,572.05 5249.27,574.92 5272.03,577.46 5292.44,579.71 5318.60,582.61 5339.94,584.97 5367.71,588.00 5395.33,591.10 5425.57,594.44 5451.16,597.29 5487.58,601.27 5516.70,604.50 5544.15,607.49 5573.28,610.62 5598.25,613.38 5627.78,616.59 5658.17,619.97 5694.94,623.98 5718.47,626.51 5746.92,629.59 5784.00,633.75 5815.97,637.26 5850.23,641.00 5880.95,644.40 5909.84,647.58 5942.25,651.16 5970.23,654.25 5999.48,657.54 6026.17,660.50 6049.89,663.14 6070.30,665.40 6093.17,667.87 6117.16,670.49 6142.90,673.36 6166.52,675.96 6197.39,679.35 6209.44,680.64 6239.39,683.91 6263.39,686.53 6287.11,689.09 6314.39,692.09 6340.71,694.98 6365.99,697.76 6393.28,700.69 6419.31,703.57 6441.92,706.11 6470.24,709.19 6502.35,712.65 6540.41,716.81 6572.63,720.33 6606.18,724.03 6637.46,727.55 6669.26,731.07 6701.77,734.71 6730.69,737.90 6753.85,740.43">
        <lane id="395.0_0" index="0" disallow="all" speed="13.89" length="6794.33" width="3.66" shape="0.99,-9.10 14.09,-7.68 27.75,-6.23 38.39,-5.05 56.11,-3.13 72.28,-1.35 93.06,0.93 106.84,2.40 120.69,3.92 137.07,5.68 150.99,7.17 164.05,8.57 178.32,10.12 192.92,11.70 205.76,13.10 219.96,14.66 231.37,15.93 244.27,17.34 256.37,18.70 271.48,20.35 284.04,21.73 298.56,23.33 311.04,24.69 322.91,26.01 335.39,27.42 349.75,28.99 364.23,30.60 378.11,32.14 388.68,33.31 401.16,34.67 410.16,35.65 422.69,37.00 429.43,37.75 443.92,39.33 459.40,41.04 473.27,42.56 487.95,44.17 500.32,45.53 511.43,46.74 523.36,48.07 534.48,49.31 545.01,50.46 556.17,51.65 569.08,53.09 584.24,54.78 606.29,57.24 631.07,59.97 655.76,62.63 675.24,64.76 689.88,66.39 706.98,68.25 724.28,70.10 741.58,71.98 762.02,74.19 779.05,76.03 795.78,77.84 811.97,79.60 827.72,81.37 845.98,83.40 861.48,85.13 880.52,87.19 897.76,89.10 914.93,90.98 935.75,93.22 954.64,95.30 976.59,97.68 999.48,100.20 1020.79,102.53 1040.75,104.70 1060.06,106.84 1081.51,109.18 1104.58,111.73 1128.53,114.33 1153.49,117.09 1176.05,119.58 1196.12,121.83 1216.25,124.07 1239.17,126.60 1263.14,129.21 1283.89,131.46 1306.51,133.91 1331.71,136.68 1351.88,138.88 1368.31,140.68 1389.84,143.05 1411.01,145.40 1434.32,147.93 1451.45,149.83 1474.03,152.25 1495.04,154.58 1512.92,156.53 1531.19,158.57 1543.14,159.83 1559.51,161.66 1573.92,163.24 1591.78,165.19 1604.94,166.63 1612.44,167.47 1630.83,169.47 1649.06,171.50 1665.99,173.31 1681.18,174.96 1695.29,176.49 1709.88,178.05 1721.59,179.37 1734.30,180.79 1748.34,182.33 1759.53,183.57 1773.76,185.12 1781.23,185.93 1787.74,186.65 1794.17,187.32 1801.02,188.10 1807.87,188.83 1813.45,189.47 1820.40,190.21 1826.79,190.91 1833.21,191.61 1839.01,192.25 1847.11,193.10 1853.44,193.79 1860.86,194.58 1865.82,195.10 1873.00,195.88 1878.39,196.44 1884.46,197.10 1891.04,197.82 1898.45,198.64 1904.93,199.33 1911.38,200.02 1917.83,200.73 1925.17,201.51 1931.44,202.20 1938.88,203.00 1945.09,203.68 1950.57,204.29 1955.36,204.81 1962.46,205.60 1968.74,206.30 1974.71,206.95 1980.39,207.56 1986.45,208.25 1992.32,208.87 1997.51,209.47 2001.41,209.87 2006.62,210.41 2012.28,211.04 2017.99,211.69 2024.60,212.43 2028.96,212.91 2034.05,213.48 2038.37,213.98 2044.13,214.59 2049.27,215.14 2054.91,215.75 2060.11,216.33 2064.89,216.85 2069.43,217.35 2074.16,217.85 2079.14,218.42 2085.31,219.07 2092.90,219.90 2098.50,220.54 2104.24,221.14 2109.83,221.72 2116.93,222.50 2122.61,223.10 2129.36,223.84 2138.87,224.88 2149.35,226.02 2156.89,226.87 2168.73,228.16 2181.22,229.57 2191.16,230.65 2202.32,231.88 2209.65,232.66 2217.53,233.51 2226.21,234.45 2237.00,235.66 2245.48,236.59 2252.15,237.31 2259.77,238.15 2263.45,238.57 2272.88,239.58 2284.95,240.89 2294.69,241.97 2306.03,243.20 2314.53,244.11 2325.20,245.29 2333.71,246.23 2362.16,249.35 2384.29,251.75 2393.17,252.73 2410.01,254.58 2422.67,255.97 2440.39,257.90 2459.00,260.01 2473.92,261.59 2488.65,263.24 2506.50,265.18 2523.58,267.02 2538.90,268.72 2554.65,270.44 2574.16,272.51 2590.90,274.38 2605.96,276.05 2622.81,277.94 2639.71,279.81 2656.83,281.68 2674.24,283.64 2690.99,285.51 2707.40,287.33 2724.81,289.24 2740.85,290.97 2757.67,292.80 2776.97,294.94 2796.47,297.04 2814.45,298.99 2835.33,301.25 2852.55,303.17 2868.00,304.82 2886.14,306.79 2904.48,308.80 2920.25,310.50 2935.58,312.21 2953.66,314.17 2971.83,316.16 2987.51,317.90 3004.88,319.81 3020.27,321.52 3033.07,322.91 3050.01,324.81 3066.09,326.58 3083.24,328.49 3101.55,330.46 3119.40,332.45 3140.29,334.76 3158.79,336.81 3174.92,338.57 3190.38,340.21 3200.88,341.39 3214.41,342.84 3227.31,344.25 3242.02,345.87 3256.32,347.38 3266.65,348.55 3278.15,349.77 3290.84,351.17 3302.41,352.44 3315.89,353.90 3327.47,355.12 3342.96,356.81 3357.36,358.35 3371.27,359.88 3383.71,361.22 3396.52,362.61 3411.28,364.23 3423.74,365.60 3436.64,367.02 3449.64,368.45 3462.85,369.90 3476.24,371.34 3488.87,372.77 3499.45,373.94 3523.46,376.52 3545.23,378.92 3568.10,381.48 3596.44,384.63 3620.16,387.28 3642.70,389.72 3665.72,392.26 3687.70,394.65 3705.67,396.64 3728.73,399.13 3750.22,401.47 3771.17,403.79 3791.98,406.03 3812.67,408.27 3830.27,410.17 3856.87,413.04 3879.85,415.47 3901.29,417.77 3924.41,420.25 3948.12,422.85 3969.22,425.13 3992.18,427.66 4012.22,429.91 4032.60,432.16 4052.41,434.32 4072.46,436.51 4090.68,438.50 4109.92,440.66 4131.74,442.98 4154.30,445.48 4179.47,448.22 4207.56,451.35 4231.52,453.94 4257.63,456.78 4281.70,459.46 4306.02,462.13 4330.32,464.84 4357.11,467.80 4387.11,471.12 4409.24,473.57 4432.27,476.10 4451.82,478.20 4476.44,480.90 4500.66,483.56 4524.23,486.13 4549.06,488.85 4570.85,491.23 4594.70,493.83 4618.65,496.47 4643.77,499.24 4661.01,501.19 4684.57,503.75 4708.14,506.33 4733.87,509.18 4755.24,511.53 4776.50,513.85 4797.15,516.09 4818.84,518.51 4842.68,521.14 4867.56,523.88 4894.91,526.88 4925.93,530.29 4954.86,533.49 4983.84,536.66 5008.71,539.42 5035.20,542.33 5056.05,544.59 5086.05,547.80 5115.01,551.02 5143.66,554.08 5171.15,557.07 5198.12,560.02 5224.41,562.96 5250.28,565.83 5273.04,568.37 5293.45,570.62 5319.61,573.52 5340.94,575.88 5368.72,578.91 5396.34,582.01 5426.58,585.35 5452.16,588.20 5488.58,592.18 5517.70,595.41 5545.13,598.39 5574.27,601.52 5599.25,604.29 5628.78,607.50 5659.17,610.88 5695.93,614.88 5719.45,617.41 5747.92,620.50 5785.01,624.66 5816.97,628.17 5851.23,631.91 5881.95,635.31 5910.84,638.49 5943.25,642.07 5971.24,645.16 6000.50,648.45 6027.18,651.41 6050.90,654.05 6071.29,656.30 6094.16,658.77 6118.16,661.40 6143.91,664.27 6167.52,666.87 6198.38,670.25 6210.43,671.54 6240.38,674.81 6264.38,677.43 6288.10,679.99 6315.39,683.00 6341.71,685.89 6366.98,688.66 6394.27,691.59 6420.32,694.48 6442.93,697.02 6471.22,700.09 6503.34,703.55 6541.40,707.71 6573.63,711.24 6607.19,714.94 6638.47,718.46 6670.27,721.98 6702.78,725.62 6731.69,728.81 6754.84,731.33" type="shoulder"/>
        <lane id="395.0_1" index="1" speed="13.89" length="6794.33" width="3.66" shape="0.59,-5.46 13.70,-4.04 27.36,-2.59 38.00,-1.42 55.72,0.51 71.88,2.28 92.66,4.57 106.45,6.04 120.29,7.56 136.68,9.32 150.60,10.81 163.66,12.21 177.92,13.76 192.52,15.34 205.37,16.74 219.56,18.29 230.97,19.56 243.86,20.97 255.96,22.33 271.08,23.98 283.64,25.36 298.16,26.96 310.64,28.32 322.50,29.65 334.99,31.05 349.35,32.62 363.83,34.23 377.70,35.77 388.28,36.94 400.77,38.31 409.77,39.29 422.29,40.64 429.04,41.38 443.52,42.96 459.00,44.67 472.87,46.19 487.55,47.80 499.92,49.16 511.03,50.37 522.96,51.70 534.07,52.94 544.62,54.10 555.77,55.29 568.68,56.72 583.84,58.41 605.89,60.87 630.68,63.61 655.37,66.27 674.84,68.39 689.48,70.02 706.59,71.89 723.89,73.74 741.18,75.62 761.63,77.83 778.66,79.67 795.39,81.48 811.57,83.23 827.31,85.00 845.58,87.03 861.08,88.76 880.12,90.82 897.36,92.73 914.53,94.62 935.35,96.86 954.25,98.94 976.20,101.32 999.08,103.83 1020.40,106.17 1040.35,108.33 1059.66,110.47 1081.11,112.81 1104.18,115.36 1128.13,117.96 1153.09,120.72 1175.65,123.21 1195.71,125.46 1215.84,127.70 1238.77,130.23 1262.74,132.85 1283.49,135.10 1306.11,137.55 1331.32,140.31 1351.49,142.51 1367.91,144.31 1389.43,146.68 1410.61,149.03 1433.92,151.56 1451.05,153.47 1473.63,155.89 1494.64,158.21 1512.52,160.16 1530.79,162.20 1542.75,163.47 1559.11,165.29 1573.52,166.87 1591.39,168.83 1604.54,170.26 1612.04,171.10 1630.43,173.10 1648.66,175.13 1665.60,176.95 1680.78,178.60 1694.90,180.13 1709.49,181.69 1721.18,183.00 1733.89,184.42 1747.94,185.96 1759.13,187.20 1773.36,188.76 1780.84,189.56 1787.35,190.29 1793.77,190.96 1800.62,191.73 1807.47,192.46 1813.04,193.10 1820.00,193.85 1826.39,194.55 1832.81,195.24 1838.62,195.89 1846.72,196.74 1853.05,197.43 1860.48,198.22 1865.43,198.74 1872.61,199.52 1878.00,200.08 1884.06,200.74 1890.65,201.45 1898.06,202.27 1904.54,202.97 1910.98,203.66 1917.44,204.37 1924.78,205.15 1931.04,205.84 1938.49,206.64 1944.69,207.31 1950.17,207.92 1954.96,208.44 1962.06,209.23 1968.33,209.93 1974.32,210.59 1979.99,211.19 1986.05,211.88 1991.92,212.50 1997.11,213.10 2001.03,213.51 2006.23,214.05 2011.87,214.68 2017.58,215.33 2024.20,216.06 2028.56,216.54 2033.64,217.12 2037.97,217.61 2043.74,218.23 2048.88,218.78 2054.51,219.39 2059.72,219.96 2064.49,220.48 2069.04,220.99 2073.77,221.48 2078.74,222.05 2084.92,222.71 2092.49,223.53 2098.10,224.17 2103.86,224.78 2109.44,225.36 2116.54,226.14 2122.22,226.74 2128.96,227.47 2138.48,228.52 2148.95,229.65 2156.49,230.50 2168.33,231.79 2180.82,233.20 2190.76,234.28 2201.93,235.52 2209.26,236.30 2217.14,237.15 2225.81,238.08 2236.60,239.29 2245.08,240.22 2251.76,240.95 2259.36,241.78 2263.05,242.20 2272.48,243.22 2284.56,244.53 2294.29,245.60 2305.63,246.84 2314.13,247.75 2324.80,248.92 2333.31,249.86 2361.77,252.98 2383.90,255.39 2392.77,256.36 2409.61,258.21 2422.28,259.60 2439.99,261.53 2458.60,263.64 2473.52,265.23 2488.25,266.87 2506.10,268.82 2523.18,270.66 2538.50,272.35 2554.26,274.08 2573.76,276.15 2590.50,278.01 2605.56,279.68 2622.41,281.57 2639.31,283.44 2656.43,285.31 2673.83,287.28 2690.59,289.14 2706.99,290.96 2724.41,292.88 2740.46,294.61 2757.27,296.43 2776.57,298.57 2796.08,300.68 2814.06,302.63 2834.93,304.88 2852.15,306.80 2867.61,308.46 2885.75,310.43 2904.08,312.44 2919.86,314.13 2935.18,315.84 2953.26,317.81 2971.43,319.79 2987.11,321.53 3004.48,323.44 3019.87,325.15 3032.66,326.54 3049.61,328.44 3065.68,330.21 3082.85,332.12 3101.15,334.09 3119.00,336.08 3139.88,338.39 3158.39,340.44 3174.53,342.21 3189.98,343.85 3200.48,345.02 3214.02,346.48 3226.91,347.88 3241.63,349.51 3255.92,351.02 3266.25,352.18 3277.75,353.41 3290.44,354.80 3302.02,356.08 3315.50,357.54 3327.08,358.76 3342.57,360.45 3356.96,361.99 3370.87,363.52 3383.32,364.86 3396.12,366.25 3410.88,367.86 3423.34,369.23 3436.24,370.65 3449.24,372.08 3462.45,373.54 3475.84,374.97 3488.46,376.41 3499.05,377.58 3523.06,380.16 3544.83,382.55 3567.70,385.11 3596.04,388.26 3619.76,390.91 3642.31,393.36 3665.33,395.89 3687.30,398.28 3705.27,400.27 3728.33,402.77 3749.82,405.10 3770.78,407.42 3791.59,409.67 3812.28,411.91 3829.88,413.81 3856.48,416.68 3879.46,419.11 3900.90,421.41 3924.01,423.89 3947.72,426.49 3968.82,428.77 3991.78,431.29 4011.82,433.54 4032.20,435.79 4052.02,437.95 4072.07,440.15 4090.27,442.13 4109.52,444.29 4131.34,446.62 4153.90,449.11 4179.07,451.85 4207.16,454.98 4231.12,457.58 4257.23,460.41 4281.29,463.09 4305.61,465.76 4329.92,468.47 4356.70,471.43 4386.70,474.75 4408.84,477.20 4431.87,479.74 4451.42,481.84 4476.04,484.53 4500.26,487.19 4523.84,489.77 4548.66,492.48 4570.46,494.87 4594.30,497.46 4618.25,500.10 4643.37,502.87 4660.60,504.82 4684.18,507.39 4707.74,509.96 4733.47,512.81 4754.84,515.16 4776.10,517.49 4796.75,519.72 4818.44,522.14 4842.28,524.77 4867.16,527.51 4894.51,530.51 4925.53,533.92 4954.46,537.12 4983.44,540.29 5008.31,543.05 5034.81,545.96 5055.66,548.23 5085.66,551.44 5114.61,554.66 5143.27,557.72 5170.75,560.71 5197.72,563.65 5224.01,566.59 5249.88,569.46 5272.64,572.00 5293.04,574.25 5319.20,577.15 5340.54,579.51 5368.31,582.54 5395.94,585.64 5426.17,588.98 5451.76,591.83 5488.18,595.81 5517.30,599.04 5544.74,602.03 5573.87,605.16 5598.85,607.92 5628.38,611.13 5658.77,614.51 5695.53,618.52 5719.06,621.05 5747.52,624.13 5784.61,628.29 5816.57,631.80 5850.83,635.54 5881.55,638.94 5910.44,642.12 5942.85,645.70 5970.84,648.79 6000.09,652.08 6026.78,655.04 6050.50,657.68 6070.90,659.94 6093.76,662.41 6117.76,665.03 6143.50,667.90 6167.12,670.50 6197.99,673.89 6210.03,675.18 6239.99,678.45 6263.98,681.07 6287.70,683.63 6314.99,686.63 6341.31,689.52 6366.58,692.30 6393.87,695.23 6419.92,698.11 6442.52,700.65 6470.83,703.73 6502.94,707.19 6541.01,711.35 6573.23,714.87 6606.79,718.57 6638.07,722.09 6669.87,725.61 6702.38,729.25 6731.29,732.44 6754.45,734.97"/>
        <lane id="395.0_2" index="2" speed="13.89" length="6794.33" width="3.66" shape="0.20,-1.82 13.31,-0.40 26.97,1.05 37.60,2.22 55.32,4.15 71.48,5.92 92.27,8.21 106.06,9.68 119.90,11.20 136.29,12.96 150.21,14.45 163.27,15.85 177.53,17.40 192.13,18.98 204.97,20.38 219.16,21.93 230.57,23.20 243.46,24.61 255.56,25.97 270.68,27.62 283.24,29.00 297.76,30.60 310.24,31.96 322.09,33.28 334.58,34.69 348.95,36.26 363.42,37.87 377.30,39.41 387.88,40.58 400.37,41.95 409.38,42.93 421.90,44.28 428.64,45.02 443.12,46.60 458.60,48.31 472.47,49.83 487.15,51.44 499.52,52.80 510.63,54.01 522.55,55.34 533.67,56.58 544.23,57.74 555.38,58.93 568.27,60.36 583.43,62.05 605.48,64.51 630.28,67.25 654.98,69.91 674.44,72.03 689.08,73.66 706.20,75.53 723.50,77.38 740.79,79.26 761.24,81.47 778.27,83.31 795.00,85.12 811.17,86.87 826.90,88.64 845.17,90.67 860.68,92.40 879.72,94.46 896.96,96.37 914.14,98.26 934.96,100.50 953.85,102.58 975.80,104.96 998.68,107.47 1020.00,109.81 1039.95,111.97 1059.26,114.11 1080.71,116.45 1103.78,119.00 1127.73,121.60 1152.69,124.36 1175.24,126.85 1195.30,129.10 1215.44,131.34 1238.37,133.87 1262.35,136.49 1283.10,138.74 1305.72,141.19 1330.92,143.95 1351.09,146.15 1367.51,147.95 1389.03,150.32 1410.21,152.67 1433.52,155.20 1450.66,157.11 1473.24,159.53 1494.24,161.85 1512.12,163.80 1530.39,165.84 1542.35,167.11 1558.71,168.93 1573.12,170.51 1590.99,172.47 1604.14,173.90 1611.64,174.74 1630.03,176.74 1648.26,178.77 1665.21,180.59 1680.39,182.24 1694.51,183.77 1709.09,185.33 1720.77,186.64 1733.49,188.06 1747.54,189.60 1758.73,190.84 1772.97,192.40 1780.44,193.20 1786.96,193.93 1793.38,194.60 1800.22,195.37 1807.07,196.10 1812.64,196.74 1819.61,197.49 1826.00,198.19 1832.41,198.88 1838.23,199.53 1846.33,200.38 1852.66,201.07 1860.09,201.86 1865.04,202.38 1872.22,203.16 1877.61,203.72 1883.67,204.38 1890.25,205.09 1897.66,205.91 1904.15,206.61 1910.59,207.30 1917.05,208.01 1924.39,208.79 1930.65,209.48 1938.10,210.28 1944.29,210.95 1949.77,211.56 1954.56,212.08 1961.65,212.87 1967.93,213.57 1973.93,214.23 1979.59,214.83 1985.65,215.52 1991.52,216.14 1996.71,216.74 2000.65,217.15 2005.84,217.69 2011.46,218.31 2017.17,218.96 2023.79,219.70 2028.15,220.18 2033.23,220.75 2037.57,221.25 2043.35,221.87 2048.49,222.42 2054.12,223.03 2059.32,223.60 2064.09,224.12 2068.65,224.63 2073.37,225.12 2078.34,225.69 2084.53,226.35 2092.09,227.17 2097.70,227.81 2103.48,228.42 2109.05,229.00 2116.15,229.78 2121.83,230.38 2128.56,231.11 2138.08,232.16 2148.55,233.29 2156.09,234.14 2167.92,235.43 2180.41,236.84 2190.36,237.92 2201.53,239.16 2208.87,239.94 2216.75,240.79 2225.41,241.72 2236.19,242.93 2244.68,243.86 2251.36,244.59 2258.96,245.42 2262.65,245.84 2272.09,246.86 2284.16,248.17 2293.89,249.24 2305.24,250.48 2313.74,251.39 2324.40,252.56 2332.91,253.50 2361.37,256.62 2383.50,259.03 2392.37,260.00 2409.21,261.85 2421.88,263.24 2439.58,265.17 2458.20,267.28 2473.13,268.87 2487.85,270.51 2505.71,272.46 2522.79,274.30 2538.10,275.99 2553.87,277.72 2573.37,279.79 2590.09,281.65 2605.15,283.32 2622.00,285.21 2638.91,287.08 2656.02,288.95 2673.42,290.91 2690.18,292.78 2706.59,294.60 2724.02,296.52 2740.07,298.25 2756.87,300.07 2776.17,302.21 2795.69,304.32 2813.67,306.27 2834.53,308.52 2851.75,310.44 2867.22,312.10 2885.35,314.07 2903.69,316.08 2919.46,317.77 2934.78,319.48 2952.87,321.45 2971.03,323.43 2986.71,325.17 3004.08,327.08 3019.47,328.79 3032.26,330.18 3049.20,332.08 3065.28,333.85 3082.45,335.76 3100.75,337.73 3118.59,339.72 3139.48,342.03 3157.99,344.08 3174.14,345.85 3189.59,347.49 3200.08,348.66 3213.63,350.12 3226.51,351.52 3241.24,353.15 3255.53,354.66 3265.85,355.82 3277.36,357.05 3290.04,358.44 3301.62,359.72 3315.11,361.18 3326.69,362.40 3342.18,364.09 3356.57,365.63 3370.48,367.16 3382.93,368.50 3395.73,369.89 3410.48,371.50 3422.94,372.87 3435.84,374.29 3448.84,375.72 3462.06,377.18 3475.44,378.61 3488.05,380.04 3498.66,381.22 3522.67,383.80 3544.42,386.19 3567.29,388.75 3595.63,391.90 3619.36,394.55 3641.91,397.00 3664.93,399.53 3686.90,401.92 3704.87,403.91 3727.94,406.41 3749.42,408.74 3770.38,411.06 3791.20,413.31 3811.89,415.55 3829.49,417.45 3856.09,420.32 3879.07,422.75 3900.51,425.05 3923.62,427.53 3947.33,430.13 3968.43,432.41 3991.37,434.93 4011.41,437.18 4031.80,439.43 4051.62,441.59 4071.67,443.79 4089.87,445.77 4109.12,447.93 4130.95,450.26 4153.50,452.75 4178.67,455.49 4206.76,458.62 4230.73,461.22 4256.83,464.05 4280.89,466.73 4305.21,469.40 4329.51,472.11 4356.30,475.07 4386.30,478.39 4408.44,480.84 4431.48,483.38 4451.03,485.48 4475.64,488.17 4499.86,490.83 4523.44,493.41 4548.26,496.12 4570.06,498.51 4593.90,501.10 4617.85,503.74 4642.96,506.51 4660.20,508.46 4683.78,511.03 4707.34,513.60 4733.07,516.45 4754.44,518.80 4775.71,521.13 4796.35,523.36 4818.03,525.78 4841.88,528.41 4866.76,531.15 4894.11,534.15 4925.13,537.56 4954.06,540.76 4983.04,543.93 5007.91,546.69 5034.41,549.60 5055.27,551.87 5085.26,555.08 5114.22,558.30 5142.88,561.36 5170.36,564.35 5197.32,567.29 5223.60,570.23 5249.47,573.10 5272.23,575.64 5292.64,577.89 5318.80,580.79 5340.14,583.15 5367.91,586.18 5395.53,589.28 5425.77,592.62 5451.36,595.47 5487.78,599.45 5516.90,602.68 5544.35,605.67 5573.48,608.80 5598.45,611.56 5627.98,614.77 5658.37,618.15 5695.14,622.16 5718.67,624.69 5747.12,627.77 5784.20,631.93 5816.17,635.44 5850.43,639.18 5881.15,642.58 5910.04,645.76 5942.45,649.34 5970.43,652.43 5999.68,655.72 6026.37,658.68 6050.09,661.32 6070.50,663.58 6093.37,666.05 6117.36,668.67 6143.10,671.54 6166.72,674.14 6197.59,677.53 6209.64,678.82 6239.59,682.09 6263.59,684.71 6287.31,687.27 6314.59,690.27 6340.91,693.16 6366.19,695.94 6393.48,698.87 6419.51,701.75 6442.12,704.29 6470.44,707.37 6502.55,710.83 6540.61,714.99 6572.83,718.51 6606.38,722.21 6637.66,725.73 6669.46,729.25 6701.97,732.89 6730.89,736.08 6754.05,738.61"/>
    </edge>