<?xml version='1.0' encoding='utf-8'?>
<edges>
    <edge id="395.0" from="node_395_start" to="junction_83" numLanes="3" speed="13.89" type="town" shape="656863.72,3282517.94 656876.83,3282519.36 656876.83,3282519.36 656890.49,3282520.81 656890.49,3282520.81 656901.12,3282521.98 656901.12,3282521.98 656918.84,3282523.91 656918.84,3282523.91 656935.00,3282525.68 656935.00,3282525.68 656955.79,3282527.97 656955.79,3282527.97 656969.58,3282529.44 656969.58,3282529.44 656983.42,3282530.96 656983.42,3282530.96 656999.81,3282532.72 656999.81,3282532.72 657013.74,3282534.21 657013.74,3282534.21 657026.79,3282535.61 657026.79,3282535.61 657041.05,3282537.16 657041.05,3282537.16 657055.65,3282538.74 657055.65,3282538.74 657068.49,3282540.14 657068.49,3282540.14 657082.68,3282541.69 657082.68,3282541.69 657094.09,3282542.96 657094.09,3282542.96 657106.98,3282544.37 657106.98,3282544.37 657119.08,3282545.73 657119.08,3282545.73 657134.20,3282547.38 657134.20,3282547.38 657146.76,3282548.76 657146.76,3282548.76 657161.28,3282550.36 657161.28,3282550.36 657173.76,3282551.72 657173.76,3282551.72 657185.61,3282553.04 657185.61,3282553.04 657198.10,3282554.45 657198.10,3282554.45 657212.47,3282556.02 657212.47,3282556.02 657226.94,3282557.63 657226.94,3282557.63 657240.82,3282559.17 657240.82,3282559.17 657251.40,3282560.34 657251.40,3282560.34 657263.89,3282561.71 657263.89,3282561.71 657272.90,3282562.69 657272.90,3282562.69 657285.42,3282564.04 657285.42,3282564.04 657292.16,3282564.78 657292.16,3282564.78 657306.64,3282566.36 657306.64,3282566.36 657322.12,3282568.07 657322.12,3282568.07 657335.99,3282569.59 657335.99,3282569.59 657350.67,3282571.20 657350.67,3282571.20 657363.04,3282572.56 657363.04,3282572.56 657374.15,3282573.77 657374.15,3282573.77 657386.07,3282575.10 657386.07,3282575.10 657397.19,3282576.34 657397.19,3282576.34 657407.75,3282577.50 657407.75,3282577.50 657418.90,3282578.69 657418.90,3282578.69 657431.79,3282580.12 657431.79,3282580.12 657446.95,3282581.81 657446.95,3282581.81 657469.00,3282584.27 657469.00,3282584.27 657493.80,3282587.01 657493.80,3282587.01 657518.50,3282589.67 657518.50,3282589.67 657537.96,3282591.79 657537.96,3282591.79 657552.60,3282593.42 657552.60,3282593.42 657569.72,3282595.29 657569.72,3282595.29 657587.02,3282597.14 657587.02,3282597.14 657604.31,3282599.02 657604.31,3282599.02 657624.76,3282601.23 657624.76,3282601.23 657641.79,3282603.07 657641.79,3282603.07 657658.52,3282604.88 657658.52,3282604.88 657674.69,3282606.63 657674.69,3282606.63 657690.42,3282608.40 657690.42,3282608.40 657708.69,3282610.43 657708.69,3282610.43 657724.20,3282612.16 657724.20,3282612.16 657743.24,3282614.22 657743.24,3282614.22 657760.48,3282616.13 657760.48,3282616.13 657777.66,3282618.02 657777.66,3282618.02 657798.48,3282620.26 657798.48,3282620.26 657817.37,3282622.34 657817.37,3282622.34 657839.32,3282624.72 657839.32,3282624.72 657862.20,3282627.23 657862.20,3282627.23 657883.52,3282629.57 657883.52,3282629.57 657903.47,3282631.73 657903.47,3282631.73 657922.78,3282633.87 657922.78,3282633.87 657944.23,3282636.21 657944.23,3282636.21 657967.30,3282638.76 657967.30,3282638.76 657991.25,3282641.36 657991.25,3282641.36 658016.21,3282644.12 658016.21,3282644.12 658038.76,3282646.61 658038.76,3282646.61 658058.82,3282648.86 658058.82,3282648.86 658078.96,3282651.10 658078.96,3282651.10 658101.89,3282653.63 658101.89,3282653.63 658125.87,3282656.25 658125.87,3282656.25 658146.62,3282658.50 658146.62,3282658.50 658169.24,3282660.95 658169.24,3282660.95 658194.44,3282663.71 658194.44,3282663.71 658214.61,3282665.91 658214.61,3282665.91 658231.03,3282667.71 658231.03,3282667.71 658252.55,3282670.08 658252.55,3282670.08 658273.73,3282672.43 658273.73,3282672.43 658297.04,3282674.96 658297.04,3282674.96 658314.18,3282676.87 658314.18,3282676.87 658336.76,3282679.29 658336.76,3282679.29 658357.76,3282681.61 658357.76,3282681.61 658375.64,3282683.56 658375.64,3282683.56 658393.91,3282685.60 658393.91,3282685.60 658405.87,3282686.87 658405.87,3282686.87 658422.23,3282688.69 658422.23,3282688.69 658436.64,3282690.27 658436.64,3282690.27 658454.51,3282692.23 658454.51,3282692.23 658467.66,3282693.66 658467.66,3282693.66 658475.16,3282694.50 658475.16,3282694.50 658493.55,3282696.50 658493.55,3282696.50 658511.78,3282698.53 658511.78,3282698.53 658528.73,3282700.35 658528.73,3282700.35 658543.91,3282702.00 658543.91,3282702.00 658558.03,3282703.53 658558.03,3282703.53 658572.61,3282705.09 658572.61,3282705.09 658584.29,3282706.40 658584.29,3282706.40 658597.01,3282707.82 658597.01,3282707.82 658611.06,3282709.36 658611.06,3282709.36 658622.25,3282710.60 658622.25,3282710.60 658636.49,3282712.16 658636.49,3282712.16 658643.96,3282712.96 658643.96,3282712.96 658650.48,3282713.69 658650.48,3282713.69 658656.90,3282714.36 658656.90,3282714.36 658663.74,3282715.13 658663.74,3282715.13 658670.59,3282715.86 658670.59,3282715.86 658676.16,3282716.50 658676.16,3282716.50 658683.13,3282717.25 658683.13,3282717.25 658689.52,3282717.95 658689.52,3282717.95 658695.93,3282718.64 658695.93,3282718.64 658701.75,3282719.29 658701.75,3282719.29 658709.86,3282720.14 658709.86,3282720.14 658716.18,3282720.83 658716.18,3282720.83 658723.62,3282721.62 658723.62,3282721.62 658728.56,3282722.14 658728.56,3282722.14 658735.75,3282722.92 658735.75,3282722.92 658741.14,3282723.48 658741.14,3282723.48 658747.19,3282724.14 658747.19,3282724.14 658753.77,3282724.85 658753.77,3282724.85 658761.18,3282725.67 658761.18,3282725.67 658767.67,3282726.37 658767.67,3282726.37 658774.11,3282727.06 658774.11,3282727.06 658780.57,3282727.77 658780.57,3282727.77 658787.91,3282728.55 658787.91,3282728.55 658794.17,3282729.24 658794.17,3282729.24 658801.62,3282730.04 658801.62,3282730.04 658807.81,3282730.71 658807.81,3282730.71 658813.29,3282731.32 658813.29,3282731.32 658818.08,3282731.84 658818.08,3282731.84 658825.17,3282732.63 658825.17,3282732.63 658831.45,3282733.33 658831.45,3282733.33 658837.45,3282733.99 658837.45,3282733.99 658843.11,3282734.59 658843.11,3282734.59 658849.17,3282735.28 658849.17,3282735.28 658855.04,3282735.90 658855.04,3282735.90 658860.23,3282736.50 658860.23,3282736.50 658864.18,3282736.91 658864.18,3282736.91 658869.36,3282737.45 658869.36,3282737.45 658874.98,3282738.07 658874.98,3282738.07 658880.68,3282738.72 658880.68,3282738.72 658887.31,3282739.46 658887.31,3282739.46 658891.67,3282739.94 658891.67,3282739.94 658896.74,3282740.51 658896.74,3282740.51 658901.09,3282741.01 658901.09,3282741.01 658906.88,3282741.63 658906.88,3282741.63 658912.01,3282742.18 658912.01,3282742.18 658917.64,3282742.79 658917.64,3282742.79 658922.84,3282743.36 658922.84,3282743.36 658927.61,3282743.88 658927.61,3282743.88 658932.17,3282744.39 658932.17,3282744.39 658936.89,3282744.88 658936.89,3282744.88 658941.86,3282745.45 658941.86,3282745.45 658948.05,3282746.11 658948.05,3282746.11 658955.61,3282746.93 658955.61,3282746.93 658961.22,3282747.57 658961.22,3282747.57 658967.01,3282748.18 658967.01,3282748.18 658972.57,3282748.76 658972.57,3282748.76 658979.67,3282749.54 658979.67,3282749.54 658985.35,3282750.14 658985.35,3282750.14 658992.08,3282750.87 658992.08,3282750.87 659001.60,3282751.92 659001.60,3282751.92 659012.07,3282753.05 659012.07,3282753.05 659019.61,3282753.90 659019.61,3282753.90 659031.44,3282755.19 659031.44,3282755.19 659043.93,3282756.60 659043.93,3282756.60 659053.88,3282757.68 659053.88,3282757.68 659065.05,3282758.92 659065.05,3282758.92 659072.40,3282759.70 659072.40,3282759.70 659080.27,3282760.55 659080.27,3282760.55 659088.93,3282761.48 659088.93,3282761.48 659099.71,3282762.69 659099.71,3282762.69 659108.20,3282763.62 659108.20,3282763.62 659114.88,3282764.35 659114.88,3282764.35 659122.48,3282765.18 659122.48,3282765.18 659126.17,3282765.60 659126.17,3282765.60 659135.61,3282766.62 659135.61,3282766.62 659147.68,3282767.93 659147.68,3282767.93 659157.41,3282769.00 659157.41,3282769.00 659168.76,3282770.24 659168.76,3282770.24 659177.26,3282771.15 659177.26,3282771.15 659187.92,3282772.32 659187.92,3282772.32 659196.43,3282773.26 659196.43,3282773.26 659224.89,3282776.38 659224.89,3282776.38 659247.02,3282778.79 659247.02,3282778.79 659255.89,3282779.76 659255.89,3282779.76 659272.73,3282781.61 659272.73,3282781.61 659285.40,3282783.00 659285.40,3282783.00 659303.10,3282784.93 659303.10,3282784.93 659321.72,3282787.04 659321.72,3282787.04 659336.65,3282788.63 659336.65,3282788.63 659351.37,3282790.27 659351.37,3282790.27 659369.23,3282792.22 659369.23,3282792.22 659386.31,3282794.06 659386.31,3282794.06 659401.62,3282795.75 659401.62,3282795.75 659417.39,3282797.48 659417.39,3282797.48 659436.89,3282799.55 659436.89,3282799.55 659453.61,3282801.41 659453.61,3282801.41 659468.67,3282803.08 659468.67,3282803.08 659485.52,3282804.97 659485.52,3282804.97 659502.43,3282806.84 659502.43,3282806.84 659519.54,3282808.71 659519.54,3282808.71 659536.94,3282810.67 659536.94,3282810.67 659553.70,3282812.54 659553.70,3282812.54 659570.11,3282814.36 659570.11,3282814.36 659587.54,3282816.28 659587.54,3282816.28 659603.59,3282818.01 659603.59,3282818.01 659620.39,3282819.83 659620.39,3282819.83 659639.69,3282821.97 659639.69,3282821.97 659659.21,3282824.08 659659.21,3282824.08 659677.19,3282826.03 659677.19,3282826.03 659698.05,3282828.28 659698.05,3282828.28 659715.27,3282830.20 659715.27,3282830.20 659730.74,3282831.86 659730.74,3282831.86 659748.87,3282833.83 659748.87,3282833.83 659767.21,3282835.84 659767.21,3282835.84 659782.98,3282837.53 659782.98,3282837.53 659798.30,3282839.24 659798.30,3282839.24 659816.39,3282841.21 659816.39,3282841.21 659834.55,3282843.19 659834.55,3282843.19 659850.23,3282844.93 659850.23,3282844.93 659867.60,3282846.84 659867.60,3282846.84 659882.99,3282848.55 659882.99,3282848.55 659895.78,3282849.94 659895.78,3282849.94 659912.72,3282851.84 659912.72,3282851.84 659928.80,3282853.61 659928.80,3282853.61 659945.97,3282855.52 659945.97,3282855.52 659964.27,3282857.49 659964.27,3282857.49 659982.11,3282859.48 659982.11,3282859.48 660003.00,3282861.79 660003.00,3282861.79 660021.51,3282863.84 660021.51,3282863.84 660037.66,3282865.61 660037.66,3282865.61 660053.11,3282867.25 660053.11,3282867.25 660063.60,3282868.42 660063.60,3282868.42 660077.15,3282869.88 660077.15,3282869.88 660090.03,3282871.28 660090.03,3282871.28 660104.76,3282872.91 660104.76,3282872.91 660119.05,3282874.42 660119.05,3282874.42 660129.37,3282875.58 660129.37,3282875.58 660140.88,3282876.81 660140.88,3282876.81 660153.56,3282878.20 660153.56,3282878.20 660165.14,3282879.48 660165.14,3282879.48 660178.64,3282880.94 660178.64,3282880.94 660190.21,3282882.16 660190.21,3282882.16 660205.70,3282883.85 660205.70,3282883.85 660220.09,3282885.39 660220.09,3282885.39 660234.00,3282886.92 660234.00,3282886.92 660246.45,3282888.26 660246.45,3282888.26 660259.25,3282889.65 660259.25,3282889.65 660274.00,3282891.26 660274.00,3282891.26 660286.46,3282892.63 660286.46,3282892.63 660299.36,3282894.05 660299.36,3282894.05 660312.36,3282895.48 660312.36,3282895.48 660325.58,3282896.94 660325.58,3282896.94 660338.96,3282898.37 660338.96,3282898.37 660351.57,3282899.80 660351.57,3282899.80 660362.18,3282900.98 660362.18,3282900.98 660386.19,3282903.56 660386.19,3282903.56 660407.94,3282905.95 660407.94,3282905.95 660430.81,3282908.51 660430.81,3282908.51 660459.15,3282911.66 660459.15,3282911.66 660482.88,3282914.31 660482.88,3282914.31 660505.43,3282916.76 660505.43,3282916.76 660528.45,3282919.29 660528.45,3282919.29 660550.42,3282921.68 660550.42,3282921.68 660568.39,3282923.67 660568.39,3282923.67 660591.46,3282926.17 660591.46,3282926.17 660612.94,3282928.50 660612.94,3282928.50 660633.90,3282930.82 660633.90,3282930.82 660654.72,3282933.07 660654.72,3282933.07 660675.41,3282935.31 660675.41,3282935.31 660693.01,3282937.21 660693.01,3282937.21 660719.62,3282940.08 660719.62,3282940.08 660742.60,3282942.51 660742.60,3282942.51 660764.03,3282944.81 660764.03,3282944.81 660787.14,3282947.29 660787.14,3282947.29 660810.85,3282949.89 660810.85,3282949.89 660831.95,3282952.17 660831.95,3282952.17 660854.89,3282954.69 660854.89,3282954.69 660874.93,3282956.94 660874.93,3282956.94 660895.32,3282959.19 660895.32,3282959.19 660915.14,3282961.35 660915.14,3282961.35 660935.19,3282963.55 660935.19,3282963.55 660953.39,3282965.53 660953.39,3282965.53 660972.64,3282967.69 660972.64,3282967.69 660994.47,3282970.02 660994.47,3282970.02 661017.02,3282972.51 661017.02,3282972.51 661042.19,3282975.25 661042.19,3282975.25 661070.28,3282978.38 661070.28,3282978.38 661094.25,3282980.98 661094.25,3282980.98 661120.35,3282983.81 661120.35,3282983.81 661144.41,3282986.49 661144.41,3282986.49 661168.73,3282989.16 661168.73,3282989.16 661193.03,3282991.87 661193.03,3282991.87 661219.82,3282994.83 661219.82,3282994.83 661249.82,3282998.15 661249.82,3282998.15 661271.96,3283000.60 661271.96,3283000.60 661295.00,3283003.14 661295.00,3283003.14 661314.55,3283005.24 661314.55,3283005.24 661339.16,3283007.93 661339.16,3283007.93 661363.38,3283010.59 661363.38,3283010.59 661386.96,3283013.17 661386.96,3283013.17 661411.78,3283015.88 661411.78,3283015.88 661433.58,3283018.27 661433.58,3283018.27 661457.42,3283020.86 661457.42,3283020.86 661481.37,3283023.50 661481.37,3283023.50 661506.48,3283026.27 661506.48,3283026.27 661523.72,3283028.22 661523.72,3283028.22 661547.30,3283030.79 661547.30,3283030.79 661570.86,3283033.36 661570.86,3283033.36 661596.59,3283036.21 661596.59,3283036.21 661617.96,3283038.56 661617.96,3283038.56 661639.23,3283040.89 661639.23,3283040.89 661659.87,3283043.12 661659.87,3283043.12 661681.55,3283045.54 661681.55,3283045.54 661705.40,3283048.17 661705.40,3283048.17 661730.28,3283050.91 661730.28,3283050.91 661757.63,3283053.91 661757.63,3283053.91 661788.65,3283057.32 661788.65,3283057.32 661817.58,3283060.52 661817.58,3283060.52 661846.56,3283063.69 661846.56,3283063.69 661871.43,3283066.45 661871.43,3283066.45 661897.93,3283069.36 661897.93,3283069.36 661918.79,3283071.63 661918.79,3283071.63 661948.78,3283074.84 661948.78,3283074.84 661977.74,3283078.06 661977.74,3283078.06 662006.40,3283081.12 662006.40,3283081.12 662033.88,3283084.11 662033.88,3283084.11 662060.84,3283087.05 662060.84,3283087.05 662087.12,3283089.99 662087.12,3283089.99 662112.99,3283092.86 662112.99,3283092.86 662135.75,3283095.40 662135.75,3283095.40 662156.16,3283097.65 662156.16,3283097.65 662182.32,3283100.55 662182.32,3283100.55 662203.66,3283102.91 662203.66,3283102.91 662231.43,3283105.94 662231.43,3283105.94 662259.05,3283109.04 662259.05,3283109.04 662289.29,3283112.38 662289.29,3283112.38 662314.88,3283115.23 662314.88,3283115.23 662351.30,3283119.21 662351.30,3283119.21 662380.42,3283122.44 662380.42,3283122.44 662407.87,3283125.43 662407.87,3283125.43 662437.00,3283128.56 662437.00,3283128.56 662461.97,3283131.32 662461.97,3283131.32 662491.50,3283134.53 662491.50,3283134.53 662521.89,3283137.91 662521.89,3283137.91 662558.66,3283141.92 662558.66,3283141.92 662582.19,3283144.45 662582.19,3283144.45 662610.64,3283147.53 662610.64,3283147.53 662647.72,3283151.69 662647.72,3283151.69 662679.69,3283155.20 662679.69,3283155.20 662713.95,3283158.94 662713.95,3283158.94 662744.67,3283162.34 662744.67,3283162.34 662773.56,3283165.52 662773.56,3283165.52 662805.97,3283169.10 662805.97,3283169.10 662833.95,3283172.19 662833.95,3283172.19 662863.20,3283175.48 662863.20,3283175.48 662889.89,3283178.44 662889.89,3283178.44 662913.61,3283181.08 662913.61,3283181.08 662934.02,3283183.34 662934.02,3283183.34 662956.89,3283185.81 662956.89,3283185.81 662980.88,3283188.43 662980.88,3283188.43 663006.62,3283191.30 663006.62,3283191.30 663030.24,3283193.90 663030.24,3283193.90 663061.11,3283197.29 663061.11,3283197.29 663073.16,3283198.58 663073.16,3283198.58 663103.11,3283201.85 663103.11,3283201.85 663127.11,3283204.47 663127.11,3283204.47 663150.83,3283207.03 663150.83,3283207.03 663178.11,3283210.03 663178.11,3283210.03 663204.43,3283212.92 663204.43,3283212.92 663229.71,3283215.70 663229.71,3283215.70 663257.00,3283218.63 663257.00,3283218.63 663283.03,3283221.51 663283.03,3283221.51 663305.64,3283224.05 663305.64,3283224.05 663333.96,3283227.13 663333.96,3283227.13 663366.07,3283230.59 663366.07,3283230.59 663404.13,3283234.75 663404.13,3283234.75 663436.35,3283238.27 663436.35,3283238.27 663469.90,3283241.97 663469.90,3283241.97 663501.18,3283245.49 663501.18,3283245.49 663532.98,3283249.01 663532.98,3283249.01 663565.49,3283252.65 663565.49,3283252.65 663594.41,3283255.84 663594.41,3283255.84 663617.57,3283258.37">
        <lane index="0" width="3.66" type="shoulder" disallow="all" />
        <lane index="1" width="3.66" />
        <lane index="2" width="3.66" />
    </edge>
    <edge id="405.0" from="junction_27" to="node_405_end" numLanes="3" speed="13.89" type="town" shape="664753.97,3283383.72 664762.91,3283384.93 664762.91,3283384.93 664779.09,3283387.17 664779.09,3283387.17 664791.75,3283389.12 664791.75,3283389.12 664803.02,3283390.92 664803.02,3283390.92 664811.01,3283392.34 664811.01,3283392.34 664819.58,3283393.85 664819.58,3283393.85 664828.30,3283395.48 664828.30,3283395.48 664839.51,3283397.67 664839.51,3283397.67 664847.78,3283399.26 664847.78,3283399.26 664855.58,3283400.86 664855.58,3283400.86 664865.74,3283403.11 664865.74,3283403.11 664875.13,3283405.24 664875.13,3283405.24 664886.28,3283407.96 664886.28,3283407.96 664893.78,3283409.80 664893.78,3283409.80 664902.85,3283412.12 664902.85,3283412.12 664912.35,3283414.61 664912.35,3283414.61 664923.13,3283417.54 664923.13,3283417.54 664933.83,3283420.55 664933.83,3283420.55 664943.85,3283423.48 664943.85,3283423.48 664952.35,3283426.07 664952.35,3283426.07 664961.68,3283428.98 664961.68,3283428.98 664970.97,3283431.96 664970.97,3283431.96 664977.11,3283434.00 664977.11,3283434.00 664984.43,3283436.41 664984.43,3283436.41 664992.01,3283439.01 664992.01,3283439.01 664999.19,3283441.47 664999.19,3283441.47 665004.90,3283443.54 665004.90,3283443.54 665011.54,3283445.97 665011.54,3283445.97 665018.68,3283448.58 665018.68,3283448.58 665029.50,3283452.70 665029.50,3283452.70 665041.69,3283457.48 665041.69,3283457.48 665056.04,3283463.30 665056.04,3283463.30 665067.88,3283468.19 665067.88,3283468.19 665080.67,3283473.69 665080.67,3283473.69 665089.42,3283477.69 665089.42,3283477.69 665099.29,3283482.21 665099.29,3283482.21 665107.33,3283485.97 665107.33,3283485.97 665118.88,3283491.46 665118.88,3283491.46 665128.98,3283496.46 665128.98,3283496.46 665137.78,3283500.87 665137.78,3283500.87 665144.46,3283504.27 665144.46,3283504.27 665151.30,3283507.80 665151.30,3283507.80 665158.68,3283511.75 665158.68,3283511.75 665167.35,3283516.42 665167.35,3283516.42 665173.68,3283519.92 665173.68,3283519.92 665182.92,3283525.12 665182.92,3283525.12 665193.31,3283530.90 665193.31,3283530.90 665205.40,3283537.77 665205.40,3283537.77 665215.64,3283543.56 665215.64,3283543.56 665224.42,3283548.64 665224.42,3283548.64 665234.30,3283554.24 665234.30,3283554.24 665244.30,3283559.96 665244.30,3283559.96 665254.05,3283565.50 665254.05,3283565.50 665262.63,3283570.41 665262.63,3283570.41 665273.76,3283576.70 665273.76,3283576.70 665282.51,3283581.70 665282.51,3283581.70 665295.42,3283589.05 665295.42,3283589.05 665308.05,3283596.22 665308.05,3283596.22 665317.43,3283601.58 665317.43,3283601.58 665326.15,3283606.60 665326.15,3283606.60 665337.92,3283613.21 665337.92,3283613.21 665349.95,3283620.19 665349.95,3283620.19 665360.65,3283626.35 665360.65,3283626.35 665371.98,3283632.77 665371.98,3283632.77 665382.31,3283638.72 665382.31,3283638.72 665392.58,3283644.60 665392.58,3283644.60 665402.83,3283650.47 665402.83,3283650.47 665414.13,3283656.92 665414.13,3283656.92 665425.20,3283663.22 665425.20,3283663.22 665436.34,3283669.60 665436.34,3283669.60 665449.49,3283677.10 665449.49,3283677.10 665457.31,3283681.62 665457.31,3283681.62 665467.47,3283687.42 665467.47,3283687.42 665475.97,3283692.30 665475.97,3283692.30 665487.08,3283698.65 665487.08,3283698.65 665497.47,3283704.56 665497.47,3283704.56 665508.74,3283711.01 665508.74,3283711.01 665519.27,3283717.09 665519.27,3283717.09 665531.04,3283723.77 665531.04,3283723.77 665543.61,3283730.96 665543.61,3283730.96 665553.55,3283736.61 665553.55,3283736.61 665563.64,3283742.37 665563.64,3283742.37 665573.04,3283747.74 665573.04,3283747.74 665582.64,3283753.23 665582.64,3283753.23 665590.54,3283757.73 665590.54,3283757.73 665598.49,3283762.23 665598.49,3283762.23 665607.94,3283767.65 665607.94,3283767.65 665616.77,3283772.74 665616.77,3283772.74 665625.78,3283777.86 665625.78,3283777.86 665631.42,3283781.12 665631.42,3283781.12 665638.25,3283785.08 665638.25,3283785.08 665644.90,3283788.83 665644.90,3283788.83 665654.26,3283794.20 665654.26,3283794.20 665663.76,3283799.62 665663.76,3283799.62 665673.12,3283804.97 665673.12,3283804.97 665684.24,3283811.36 665684.24,3283811.36 665694.97,3283817.48 665694.97,3283817.48 665704.81,3283823.11 665704.81,3283823.11 665714.17,3283828.42 665714.17,3283828.42 665723.58,3283833.84 665723.58,3283833.84 665729.57,3283837.19 665729.57,3283837.19 665731.82,3283838.50 665731.82,3283838.50 665797.54,3283876.17 665797.54,3283876.17 665947.89,3283962.10 665947.89,3283962.10 666050.82,3284020.80 666050.82,3284020.80 666133.83,3284068.39 666133.83,3284068.39 666186.21,3284098.33 666186.21,3284098.33 666253.96,3284137.01 666253.96,3284137.01 666358.56,3284196.85 666358.56,3284196.85 666417.11,3284230.35 666417.11,3284230.35 666454.25,3284251.61 666454.25,3284251.61 666516.21,3284286.97 666516.21,3284286.97 666595.37,3284332.13 666595.37,3284332.13 666641.59,3284358.54 666641.59,3284358.54 666649.35,3284363.00 666649.35,3284363.00 666664.17,3284371.42">
        <lane index="0" width="3.66" type="shoulder" disallow="all" />
        <lane index="1" width="3.66" />
        <lane index="2" width="3.66" />
    </edge>
    <edge id="406.0" from="node_406_start" to="junction_27" numLanes="2" speed="13.89" type="town" shape="664553.64,3283361.25 664577.21,3283363.87 664577.21,3283363.87 664612.64,3283367.71">
        <lane index="0" width="3.66" />
        <lane index="1" width="3.66" />
    </edge>
    <edge id="407.0" from="junction_83" to="node_407_end" numLanes="2" speed="13.89" type="town" shape="663680.11,3283265.27 663697.63,3283267.16 663697.63,3283267.16 663721.08,3283269.73 663721.08,3283269.73 663740.55,3283271.86 663740.55,3283271.86 663760.97,3283274.10 663760.97,3283274.10 663776.25,3283275.76">
        <lane index="0" width="3.66" />
        <lane index="1" width="3.66" />
    </edge>
    <edge id="409.0" from="node_409_start" to="junction_27" numLanes="1" speed="13.89" type="town" shape="664460.79,3283316.44 664467.03,3283319.28 664467.03,3283319.28 664476.05,3283322.71 664476.05,3283322.71 664484.86,3283325.69 664484.86,3283325.69 664492.28,3283328.11 664492.28,3283328.11 664501.80,3283331.16 664501.80,3283331.16 664508.80,3283333.23 664508.80,3283333.23 664516.25,3283335.49 664516.25,3283335.49 664526.53,3283338.50 664526.53,3283338.50 664532.68,3283340.22 664532.68,3283340.22 664539.41,3283342.09 664539.41,3283342.09 664548.96,3283344.58 664548.96,3283344.58 664559.53,3283347.25 664559.53,3283347.25 664565.78,3283348.82 664565.78,3283348.82 664573.24,3283350.72 664573.24,3283350.72 664584.39,3283353.42 664584.39,3283353.42 664592.87,3283355.47 664592.87,3283355.47 664600.60,3283357.36 664600.60,3283357.36 664608.21,3283359.18 664608.21,3283359.18 664613.33,3283360.41">
        <lane index="0" width="3.66" />
    </edge>
    <edge id="410.0" from="node_407_end" to="node_406_start" numLanes="3" speed="13.89" type="town" shape="663776.25,3283275.76 663782.88,3283276.48 663782.88,3283276.48 663807.00,3283279.11 663807.00,3283279.11 663830.57,3283281.67 663830.57,3283281.67 663845.30,3283283.28 663845.30,3283283.28 663867.09,3283285.72 663867.09,3283285.72 663888.47,3283288.03 663888.47,3283288.03 663904.70,3283289.86 663904.70,3283289.86 663924.33,3283292.00 663924.33,3283292.00 663941.36,3283293.87 663941.36,3283293.87 663957.12,3283295.59 663957.12,3283295.59 663973.45,3283297.40 663973.45,3283297.40 663991.39,3283299.37 663991.39,3283299.37 664003.10,3283300.68 664003.10,3283300.68 664024.81,3283303.09 664024.81,3283303.09 664045.65,3283305.39 664045.65,3283305.39 664067.02,3283307.76 664067.02,3283307.76 664085.88,3283309.84 664085.88,3283309.84 664107.33,3283312.24 664107.33,3283312.24 664125.08,3283314.16 664125.08,3283314.16 664140.00,3283315.84 664140.00,3283315.84 664158.22,3283317.84 664158.22,3283317.84 664178.01,3283319.97 664178.01,3283319.97 664198.58,3283322.28 664198.58,3283322.28 664216.69,3283324.24 664216.69,3283324.24 664238.20,3283326.60 664238.20,3283326.60 664253.47,3283328.25 664253.47,3283328.25 664270.26,3283330.11 664270.26,3283330.11 664287.82,3283332.03 664287.82,3283332.03 664308.99,3283334.34 664308.99,3283334.34 664328.90,3283336.52 664328.90,3283336.52 664349.99,3283338.86 664349.99,3283338.86 664373.16,3283341.34 664373.16,3283341.34 664392.08,3283343.44 664392.08,3283343.44 664420.69,3283346.58 664420.69,3283346.58 664452.16,3283350.08 664452.16,3283350.08 664483.77,3283353.52 664483.77,3283353.52 664516.90,3283357.18 664516.90,3283357.18 664542.26,3283359.99 664542.26,3283359.99 664553.64,3283361.25">
        <lane index="0" width="3.66" type="shoulder" disallow="all" />
        <lane index="1" width="3.66" />
        <lane index="2" width="3.66" />
    </edge>
    <edge id="412.0" from="junction_83" to="node_412_end" numLanes="1" speed="13.89" type="town" shape="663680.90,3283257.93 663688.60,3283258.21 663688.60,3283258.21 663702.16,3283258.66 663702.16,3283258.66 663730.01,3283259.53 663730.01,3283259.53 663757.20,3283260.35 663757.20,3283260.35 663780.45,3283260.99 663780.45,3283260.99 663806.50,3283261.76 663806.50,3283261.76 663832.80,3283262.62 663832.80,3283262.62 663855.39,3283263.39 663855.39,3283263.39 663864.86,3283263.66 663864.86,3283263.66 663876.22,3283263.79 663876.22,3283263.79 663883.11,3283263.62 663883.11,3283263.62 663887.57,3283263.47 663887.57,3283263.47 663893.73,3283263.07 663893.73,3283263.07 663899.07,3283262.53 663899.07,3283262.53 663902.85,3283262.13 663902.85,3283262.13 663909.51,3283261.05 663909.51,3283261.05 663916.95,3283259.68 663916.95,3283259.68 663920.49,3283258.97 663920.49,3283258.97 663925.65,3283257.75 663925.65,3283257.75 663931.75,3283256.32">
        <lane index="0" width="3.66" />
    </edge>
    <edge id="420.0" from="node_420_start" to="node_420_end" numLanes="3" speed="13.89" type="town" shape="667475.56,3284835.21 667521.23,3284861.20">
        <lane index="0" width="3.66" type="shoulder" disallow="all" />
        <lane index="1" width="3.66" />
        <lane index="2" width="3.66" />
    </edge>
    <edge id="425.0" from="node_425_start" to="node_420_start" numLanes="3" speed="13.89" type="town" shape="666744.29,3284417.32 666758.95,3284425.67 666758.95,3284425.67 666795.79,3284446.71 666795.79,3284446.71 666823.11,3284462.22 666823.11,3284462.22 666840.67,3284472.24 666840.67,3284472.24 666864.39,3284485.77 666864.39,3284485.77 666879.70,3284494.49 666879.70,3284494.49 666899.07,3284505.48 666899.07,3284505.48 666927.36,3284521.59 666927.36,3284521.59 666944.80,3284531.57 666944.80,3284531.57 666960.76,3284540.71 666960.76,3284540.71 666981.65,3284552.68 666981.65,3284552.68 666997.34,3284561.64 666997.34,3284561.64 667021.35,3284575.43 667021.35,3284575.43 667046.76,3284590.00 667046.76,3284590.00 667069.51,3284603.02 667069.51,3284603.02 667093.43,3284616.72 667093.43,3284616.72 667141.18,3284643.92 667141.18,3284643.92 667171.27,3284661.14 667171.27,3284661.14 667210.43,3284683.52 667210.43,3284683.52 667243.79,3284702.58 667243.79,3284702.58 667273.67,3284719.66 667273.67,3284719.66 667299.86,3284734.63 667299.86,3284734.63 667322.59,3284747.68 667322.59,3284747.68 667362.94,3284770.77 667362.94,3284770.77 667395.13,3284789.23 667395.13,3284789.23 667432.44,3284810.59 667432.44,3284810.59 667475.56,3284835.21">
        <lane index="0" width="3.66" type="shoulder" disallow="all" />
        <lane index="1" width="3.66" />
        <lane index="2" width="3.66" />
    </edge>
    <edge id="428.0" from="node_428_start" to="junction_84" numLanes="3" speed="13.89" type="town" shape="667635.59,3284926.59 667675.11,3284949.25 667675.11,3284949.25 667706.23,3284966.96 667706.23,3284966.96 667734.05,3284982.84 667734.05,3284982.84 667757.69,3284996.32 667757.69,3284996.32 667781.10,3285009.72 667781.10,3285009.72 667815.86,3285029.46 667815.86,3285029.46 667832.78,3285039.07 667832.78,3285039.07 667851.30,3285049.52 667851.30,3285049.52 667860.65,3285054.71 667860.65,3285054.71 667874.63,3285062.47 667874.63,3285062.47 667887.71,3285069.56 667887.71,3285069.56 667898.73,3285075.55 667898.73,3285075.55 667910.68,3285081.95 667910.68,3285081.95 667927.13,3285090.58 667927.13,3285090.58 667949.29,3285101.94 667949.29,3285101.94 667974.24,3285114.59 667974.24,3285114.59 667993.00,3285123.83 667993.00,3285123.83 668012.85,3285133.53 668012.85,3285133.53 668043.21,3285148.04 668043.21,3285148.04 668070.68,3285160.81 668070.68,3285160.81 668101.75,3285174.98 668101.75,3285174.98 668124.57,3285185.25 668124.57,3285185.25 668136.05,3285190.27 668136.05,3285190.27 668148.14,3285195.50 668148.14,3285195.50 668164.40,3285202.41 668164.40,3285202.41 668178.36,3285208.36 668178.36,3285208.36 668205.91,3285219.90 668205.91,3285219.90 668242.82,3285235.32 668242.82,3285235.32 668268.92,3285246.17 668268.92,3285246.17 668293.15,3285256.29 668293.15,3285256.29 668338.32,3285274.98 668338.32,3285274.98 668423.63,3285310.57 668423.63,3285310.57 668507.64,3285345.48 668507.64,3285345.48 668550.90,3285363.59">
        <lane index="0" width="3.66" type="shoulder" disallow="all" />
        <lane index="1" width="3.66" />
        <lane index="2" width="3.66" />
    </edge>