<?xml version='1.0' encoding='utf-8'?>
<edges>
    <edge id="352.0" from="node_352_start" to="node_352_end" numLanes="3" speed="13.89" type="town" shape="676855.26,3286053.99 676851.75,3286054.02 676851.75,3286054.02 676829.76,3286053.90 676829.76,3286053.90 676807.26,3286053.83 676807.26,3286053.83 676784.67,3286053.82 676784.67,3286053.82 676762.81,3286053.71 676762.81,3286053.71 676738.63,3286053.54 676738.63,3286053.54 676711.78,3286053.38 676711.78,3286053.38 676685.60,3286053.19 676685.60,3286053.19 676658.76,3286052.96 676658.76,3286052.96 676635.70,3286052.84 676635.70,3286052.84 676608.54,3286052.69 676608.54,3286052.69 676582.68,3286052.54 676582.68,3286052.54 676557.12,3286052.39 676557.12,3286052.39 676531.09,3286052.25 676531.09,3286052.25 676477.63,3286052.05 676477.63,3286052.05 676447.37,3286051.85 676447.37,3286051.85 676410.89,3286051.63 676410.89,3286051.63 676370.25,3286051.41 676370.25,3286051.41 676337.11,3286051.16 676337.11,3286051.16 676313.14,3286050.99 676313.14,3286050.99 676288.05,3286050.81 676288.05,3286050.81 676260.44,3286050.58 676260.44,3286050.58 676230.20,3286050.43 676230.20,3286050.43 676192.96,3286050.21 676192.96,3286050.21 676159.69,3286050.06 676159.69,3286050.06 676137.43,3286050.00 676137.43,3286050.00 676091.48,3286049.82 676091.48,3286049.82 676040.85,3286049.56 676040.85,3286049.56 676009.84,3286049.39 676009.84,3286049.39 675984.40,3286049.30">
        <lane index="0" width="3.66" type="shoulder" disallow="all" />
        <lane index="1" width="3.66" />
        <lane index="2" width="3.66" />
    </edge>
    <edge id="353.0" from="node_352_end" to="j_merge_start_27" numLanes="2" speed="13.89" type="town" shape="675984.40,3286049.30 675967.07,3286049.18 675967.07,3286049.18 675943.56,3286049.06 675943.56,3286049.06 675918.42,3286048.97 675918.42,3286048.97 675897.88,3286048.86 675897.88,3286048.86 675884.09,3286048.77">
        <lane index="0" width="3.66" />
        <lane index="1" width="3.66" />
    </edge>
    <edge id="355.0" from="j_merge_end_27" to="node_355_end" numLanes="3" speed="13.89" type="town" shape="675725.45,3286047.87 675715.37,3286047.83 675715.37,3286047.83 675697.68,3286047.74 675697.68,3286047.74 675681.32,3286047.63 675681.32,3286047.63 675660.27,3286047.51 675660.27,3286047.51 675641.38,3286047.37 675641.38,3286047.37 675623.25,3286047.35 675623.25,3286047.35 675601.35,3286047.21 675601.35,3286047.21 675579.36,3286047.16 675579.36,3286047.16 675556.70,3286047.12 675556.70,3286047.12 675537.77,3286047.07 675537.77,3286047.07 675515.63,3286046.97 675515.63,3286046.97 675499.08,3286046.96 675499.08,3286046.96 675478.06,3286046.89 675478.06,3286046.89 675461.62,3286046.87 675461.62,3286046.87 675442.39,3286046.79 675442.39,3286046.79 675426.20,3286046.73 675426.20,3286046.73 675410.06,3286046.65 675410.06,3286046.65 675391.03,3286046.58 675391.03,3286046.58 675369.43,3286046.44 675369.43,3286046.44 675346.17,3286046.33 675346.17,3286046.33 675323.91,3286046.24 675323.91,3286046.24 675300.49,3286046.12 675300.49,3286046.12 675277.93,3286046.02 675277.93,3286046.02 675252.93,3286045.90 675252.93,3286045.90 675228.44,3286045.82 675228.44,3286045.82 675206.89,3286045.72 675206.89,3286045.72 675186.14,3286045.61 675186.14,3286045.61 675164.72,3286045.47 675164.72,3286045.47 675139.16,3286045.32 675139.16,3286045.32 675111.42,3286045.12 675111.42,3286045.12 675084.93,3286044.98 675084.93,3286044.98 675055.51,3286044.87 675055.51,3286044.87 675030.79,3286044.80 675030.79,3286044.80 675010.09,3286044.73 675010.09,3286044.73 674987.59,3286044.69 674987.59,3286044.69 674964.59,3286044.55 674964.59,3286044.55 674945.09,3286044.39 674945.09,3286044.39 674921.45,3286044.33 674921.45,3286044.33 674900.30,3286044.22 674900.30,3286044.22 674878.58,3286044.14 674878.58,3286044.14 674855.15,3286044.04 674855.15,3286044.04 674836.95,3286043.94 674836.95,3286043.94 674816.06,3286043.83 674816.06,3286043.83 674796.17,3286043.74 674796.17,3286043.74 674776.28,3286043.60 674776.28,3286043.60 674757.43,3286043.53 674757.43,3286043.53 674737.09,3286043.41 674737.09,3286043.41 674715.68,3286043.33 674715.68,3286043.33 674696.08,3286043.19 674696.08,3286043.19 674676.85,3286043.10 674676.85,3286043.10 674656.90,3286042.98 674656.90,3286042.98 674639.22,3286042.93 674639.22,3286042.93 674619.41,3286042.85 674619.41,3286042.85 674597.93,3286042.77 674597.93,3286042.77 674575.25,3286042.71 674575.25,3286042.71 674548.50,3286042.64 674548.50,3286042.64 674522.93,3286042.47 674522.93,3286042.47 674501.45,3286042.42 674501.45,3286042.42 674477.73,3286042.29 674477.73,3286042.29 674453.13,3286042.16 674453.13,3286042.16 674430.10,3286042.01 674430.10,3286042.01 674406.38,3286041.86 674406.38,3286041.86 674380.92,3286041.77 674380.92,3286041.77 674358.55,3286041.67 674358.55,3286041.67 674339.92,3286041.59 674339.92,3286041.59 674312.46,3286041.51 674312.46,3286041.51 674291.65,3286041.40 674291.65,3286041.40 674273.20,3286041.29 674273.20,3286041.29 674252.29,3286041.18 674252.29,3286041.18 674235.11,3286041.08 674235.11,3286041.08 674212.86,3286040.99 674212.86,3286040.99 674189.29,3286040.90 674189.29,3286040.90 674163.31,3286040.74 674163.31,3286040.74 674141.49,3286040.63 674141.49,3286040.63 674122.59,3286040.52 674122.59,3286040.52 674102.70,3286040.49 674102.70,3286040.49 674081.95,3286040.45 674081.95,3286040.45 674063.02,3286040.33 674063.02,3286040.33 674041.46,3286040.23 674041.46,3286040.23 674019.84,3286040.13 674019.84,3286040.13 673997.74,3286040.04 673997.74,3286040.04 673974.68,3286039.98 673974.68,3286039.98 673953.32,3286039.81 673953.32,3286039.81 673928.52,3286039.65 673928.52,3286039.65 673908.79,3286039.51 673908.79,3286039.51 673886.82,3286039.47 673886.82,3286039.47 673863.79,3286039.42 673863.79,3286039.42 673841.32,3286039.37 673841.32,3286039.37 673817.12,3286039.23 673817.12,3286039.23 673788.64,3286039.13 673788.64,3286039.13 673763.29,3286038.95 673763.29,3286038.95 673740.79,3286038.79 673740.79,3286038.79 673713.88,3286038.76 673713.88,3286038.76 673690.98,3286038.69 673690.98,3286038.69 673665.83,3286038.61 673665.83,3286038.61 673642.85,3286038.51 673642.85,3286038.51 673620.94,3286038.42 673620.94,3286038.42 673592.46,3286038.35 673592.46,3286038.35 673567.73,3286038.28 673567.73,3286038.28 673546.06,3286038.15 673546.06,3286038.15 673520.54,3286038.10 673520.54,3286038.10 673496.49,3286037.96 673496.49,3286037.96 673477.87,3286037.82 673477.87,3286037.82 673458.33,3286037.79 673458.33,3286037.79 673434.18,3286037.65 673434.18,3286037.65 673415.16,3286037.55 673415.16,3286037.55 673393.84,3286037.41 673393.84,3286037.41 673373.86,3286037.32 673373.86,3286037.32 673349.09,3286037.23 673349.09,3286037.23 673322.47,3286037.09 673322.47,3286037.09 673296.27,3286036.93 673296.27,3286036.93 673270.52,3286036.82 673270.52,3286036.82 673245.79,3286036.73 673245.79,3286036.73 673220.69,3286036.60 673220.69,3286036.60 673195.06,3286036.52 673195.06,3286036.52 673171.09,3286036.46 673171.09,3286036.46 673145.33,3286036.31 673145.33,3286036.31 673122.90,3286036.19 673122.90,3286036.19 673099.39,3286036.13 673099.39,3286036.13 673070.25,3286036.00 673070.25,3286036.00 673049.57,3286035.82 673049.57,3286035.82 673023.59,3286035.72 673023.59,3286035.72 672995.34,3286035.64 672995.34,3286035.64 672971.73,3286035.56 672971.73,3286035.56 672947.77,3286035.44 672947.77,3286035.44 672925.07,3286035.33 672925.07,3286035.33 672901.21,3286035.19 672901.21,3286035.19 672875.75,3286035.11 672875.75,3286035.11 672847.64,3286034.96 672847.64,3286034.96 672820.49,3286034.87 672820.49,3286034.87 672793.67,3286034.73 672793.67,3286034.73 672767.25,3286034.66 672767.25,3286034.66 672744.91,3286034.59 672744.91,3286034.59 672723.28,3286034.49 672723.28,3286034.49 672695.96,3286034.34 672695.96,3286034.34 672666.76,3286034.19 672666.76,3286034.19 672644.06,3286034.21 672644.06,3286034.21 672625.69,3286034.11 672625.69,3286034.11 672599.00,3286033.95 672599.00,3286033.95 672570.54,3286033.88 672570.54,3286033.88 672551.83,3286033.75 672551.83,3286033.75 672528.73,3286033.64 672528.73,3286033.64 672508.74,3286033.55 672508.74,3286033.55 672488.17,3286033.46 672488.17,3286033.46 672468.53,3286033.34 672468.53,3286033.34 672448.80,3286033.23 672448.80,3286033.23 672430.75,3286033.10 672430.75,3286033.10 672402.67,3286032.98 672402.67,3286032.98 672377.99,3286032.91 672377.99,3286032.91 672353.13,3286032.76 672353.13,3286032.76 672327.55,3286032.65 672327.55,3286032.65 672303.33,3286032.53 672303.33,3286032.53 672276.34,3286032.37 672276.34,3286032.37 672250.49,3286032.24 672250.49,3286032.24 672221.18,3286032.09 672221.18,3286032.09 672189.75,3286031.94 672189.75,3286031.94 672183.00,3286031.94 672183.00,3286031.94 672166.34,3286031.84 672166.34,3286031.84 672149.74,3286031.73 672149.74,3286031.73 672131.89,3286031.68 672131.89,3286031.68 672115.15,3286031.63 672115.15,3286031.63 672099.44,3286031.59 672099.44,3286031.59 672076.66,3286031.54 672076.66,3286031.54 672055.38,3286031.40 672055.38,3286031.40 672031.59,3286031.26 672031.59,3286031.26 672006.36,3286031.08 672006.36,3286031.08 671981.94,3286031.00 671981.94,3286031.00 671955.86,3286030.79 671955.86,3286030.79 671904.13,3286030.51 671904.13,3286030.51 671888.53,3286030.40 671888.53,3286030.40 671872.06,3286030.27 671872.06,3286030.27 671853.82,3286030.16 671853.82,3286030.16 671834.93,3286030.05 671834.93,3286030.05 671817.05,3286029.95 671817.05,3286029.95 671794.69,3286029.80 671794.69,3286029.80 671772.76,3286029.74 671772.76,3286029.74 671750.92,3286029.67 671750.92,3286029.67 671731.35,3286029.55 671731.35,3286029.55 671706.42,3286029.46 671706.42,3286029.46 671680.77,3286029.35 671680.77,3286029.35 671662.85,3286029.29 671662.85,3286029.29 671635.75,3286029.07 671635.75,3286029.07 671611.87,3286028.93 671611.87,3286028.93 671588.22,3286028.73 671588.22,3286028.73 671562.68,3286028.69 671562.68,3286028.69 671540.92,3286028.57 671540.92,3286028.57 671515.52,3286028.47 671515.52,3286028.47 671495.65,3286028.41 671495.65,3286028.41 671479.12,3286028.34 671479.12,3286028.34 671457.60,3286028.19 671457.60,3286028.19 671424.77,3286028.04 671424.77,3286028.04 671386.21,3286027.86 671386.21,3286027.86 671354.09,3286027.68 671354.09,3286027.68 671324.56,3286027.53 671324.56,3286027.53 671292.18,3286027.37 671292.18,3286027.37 671259.63,3286027.16 671259.63,3286027.16 671239.74,3286027.05 671239.74,3286027.05 671222.68,3286027.01 671222.68,3286027.01 671199.23,3286026.84 671199.23,3286026.84 671182.06,3286026.74 671182.06,3286026.74 671168.81,3286026.66 671168.81,3286026.66 671147.83,3286026.55 671147.83,3286026.55 671130.46,3286026.46 671130.46,3286026.46 671116.58,3286026.36 671116.58,3286026.36 671095.66,3286026.27 671095.66,3286026.27 671079.07,3286026.17 671079.07,3286026.17 671055.20,3286026.10 671055.20,3286026.10 671034.45,3286025.91 671034.45,3286025.91 671011.44,3286025.84 671011.44,3286025.84 670988.63,3286025.78 670988.63,3286025.78 670973.34,3286025.67 670973.34,3286025.67 670943.52,3286025.66 670943.52,3286025.66 670928.33,3286025.60 670928.33,3286025.60 670907.79,3286025.50 670907.79,3286025.50 670888.24,3286025.37 670888.24,3286025.37 670863.89,3286025.30 670863.89,3286025.30 670836.86,3286025.14 670836.86,3286025.14 670808.18,3286025.08 670808.18,3286025.08 670776.86,3286024.97 670776.86,3286024.97 670742.83,3286024.89 670742.83,3286024.89 670703.26,3286024.70 670703.26,3286024.70 670666.02,3286024.62 670666.02,3286024.62 670655.97,3286024.58 670655.97,3286024.58 670644.43,3286024.60 670644.43,3286024.60 670631.09,3286024.56 670631.09,3286024.56 670617.16,3286024.53 670617.16,3286024.53 670602.94,3286024.49 670602.94,3286024.49 670584.75,3286024.37 670584.75,3286024.37 670565.64,3286024.28 670565.64,3286024.28 670543.69,3286024.18 670543.69,3286024.18 670520.46,3286024.20 670520.46,3286024.20 670495.94,3286024.07 670495.94,3286024.07 670478.17,3286023.97 670478.17,3286023.97 670459.67,3286023.84 670459.67,3286023.84 670440.44,3286023.74 670440.44,3286023.74 670421.01,3286023.49 670421.01,3286023.49 670402.59,3286023.28 670402.59,3286023.28 670375.49,3286022.66 670375.49,3286022.66 670354.80,3286021.95 670354.80,3286021.95 670338.78,3286021.12 670338.78,3286021.12 670320.52,3286020.13 670320.52,3286020.13 670301.92,3286018.98 670301.92,3286018.98 670281.56,3286017.41 670281.56,3286017.41 670261.98,3286015.68 670261.98,3286015.68 670247.19,3286014.26 670247.19,3286014.26 670230.04,3286012.51 670230.04,3286012.51 670211.47,3286010.32 670211.47,3286010.32 670194.05,3286008.04 670194.05,3286008.04 670180.23,3286006.19 670180.23,3286006.19 670164.43,3286003.89 670164.43,3286003.89 670146.80,3286001.16 670146.80,3286001.16 670131.01,3285998.58 670131.01,3285998.58 670112.85,3285995.43 670112.85,3285995.43 670093.57,3285991.83 670093.57,3285991.83 670089.36,3285991.02 670089.36,3285991.02 670082.32,3285989.64 670082.32,3285989.64 670074.15,3285987.98 670074.15,3285987.98 670064.46,3285985.96 670064.46,3285985.96 670052.75,3285983.48 670052.75,3285983.48 670033.88,3285979.25 670033.88,3285979.25 670011.68,3285974.05 670011.68,3285974.05 669993.03,3285969.43 669993.03,3285969.43 669986.01,3285967.60 669986.01,3285967.60 669976.34,3285965.05 669976.34,3285965.05 669962.72,3285961.33 669962.72,3285961.33 669942.85,3285955.78 669942.85,3285955.78 669926.26,3285951.08 669926.26,3285951.08 669907.80,3285945.52 669907.80,3285945.52 669889.78,3285939.85 669889.78,3285939.85 669869.31,3285933.11 669869.31,3285933.11 669846.19,3285925.30 669846.19,3285925.30 669825.54,3285917.76 669825.54,3285917.76 669796.59,3285906.93 669796.59,3285906.93 669771.97,3285897.34 669771.97,3285897.34 669741.95,3285885.21 669741.95,3285885.21 669732.28,3285881.29 669732.28,3285881.29 669722.76,3285877.36 669722.76,3285877.36 669713.67,3285873.56 669713.67,3285873.56 669702.50,3285868.89 669702.50,3285868.89 669688.65,3285863.12 669688.65,3285863.12 669672.54,3285856.36 669672.54,3285856.36 669660.15,3285851.15 669660.15,3285851.15 669643.29,3285844.15 669643.29,3285844.15 669622.30,3285835.39 669622.30,3285835.39 669602.69,3285827.17 669602.69,3285827.17 669587.80,3285820.94 669587.80,3285820.94 669574.25,3285815.24 669574.25,3285815.24 669560.75,3285809.61 669560.75,3285809.61 669552.44,3285806.12 669552.44,3285806.12 669541.93,3285801.76 669541.93,3285801.76 669529.07,3285796.38 669529.07,3285796.38 669516.94,3285791.36 669516.94,3285791.36 669509.39,3285788.17 669509.39,3285788.17 669505.11,3285786.38 669505.11,3285786.38 669498.48,3285783.63 669498.48,3285783.63 669489.92,3285780.03 669489.92,3285780.03 669479.55,3285775.71 669479.55,3285775.71 669469.92,3285771.73 669469.92,3285771.73 669459.72,3285767.42 669459.72,3285767.42 669451.66,3285764.09 669451.66,3285764.09 669442.58,3285760.25 669442.58,3285760.25 669430.40,3285755.15 669430.40,3285755.15 669419.48,3285750.56 669419.48,3285750.56 669403.16,3285743.75 669403.16,3285743.75 669387.32,3285737.18 669387.32,3285737.18 669373.29,3285731.31 669373.29,3285731.31 669361.04,3285726.17 669361.04,3285726.17 669346.11,3285719.93">
        <lane index="0" width="3.66" type="shoulder" disallow="all" />
        <lane index="1" width="3.66" />
        <lane index="2" width="3.66" />
    </edge>
    <edge id="356.0" from="node_356_start" to="node_356_end" numLanes="1" speed="13.89" type="town" shape="676211.09,3286087.58 676194.42,3286085.08 676194.42,3286085.08 676165.98,3286081.06 676165.98,3286081.06 676138.01,3286076.98 676138.01,3286076.98 676107.23,3286072.56 676107.23,3286072.56 676093.09,3286070.58 676093.09,3286070.58 676077.29,3286068.45 676077.29,3286068.45 676058.73,3286066.05 676058.73,3286066.05 676045.91,3286064.66 676045.91,3286064.66 676030.38,3286063.09 676030.38,3286063.09 676014.20,3286061.62 676014.20,3286061.62 675999.01,3286060.40 675999.01,3286060.40 675990.05,3286059.77 675990.05,3286059.77 675984.13,3286059.38">
        <lane index="0" width="3.66" />
    </edge>
    <edge id="360.0" from="node_356_end" to="j_merge_start_27" numLanes="1" speed="13.89" type="town" shape="675984.13,3286059.38 675973.25,3286058.80 675973.25,3286058.80 675961.32,3286058.09 675961.32,3286058.09 675950.08,3286057.50 675950.08,3286057.50 675938.52,3286057.06 675938.52,3286057.06 675929.24,3286056.69 675929.24,3286056.69 675919.45,3286056.41 675919.45,3286056.41 675911.20,3286056.22 675911.20,3286056.22 675903.12,3286056.15 675903.12,3286056.15 675892.17,3286056.04 675892.17,3286056.04 675884.03,3286055.86">
        <lane index="0" width="3.66" />
    </edge>
    <edge id="361.0" from="node_361_start" to="node_361_end" numLanes="2" speed="13.89" type="town" shape="668476.55,3285357.90 668466.55,3285353.70 668466.55,3285353.70 668445.99,3285345.16 668445.99,3285345.16 668427.05,3285337.30 668427.05,3285337.30 668411.42,3285330.76 668411.42,3285330.76 668398.91,3285325.52 668398.91,3285325.52 668389.36,3285321.57">
        <lane index="0" width="3.66" />
        <lane index="1" width="3.66" />
    </edge>
    <edge id="363.0" from="junction_91" to="junction_28" numLanes="3" speed="13.89" type="town" shape="669253.87,3285681.40 669238.59,3285675.01 669238.59,3285675.01 669209.00,3285662.66 669209.00,3285662.66 669184.51,3285652.39 669184.51,3285652.39 669165.36,3285644.38 669165.36,3285644.38 669140.82,3285634.07 669140.82,3285634.07 669113.05,3285622.47 669113.05,3285622.47 669087.66,3285611.83 669087.66,3285611.83 669065.99,3285602.96 669065.99,3285602.96 669044.39,3285594.05 669044.39,3285594.05 669023.96,3285585.75 669023.96,3285585.75 669010.25,3285580.07 669010.25,3285580.07 668994.29,3285573.41 668994.29,3285573.41 668976.91,3285566.31 668976.91,3285566.31 668958.20,3285558.49 668958.20,3285558.49 668934.40,3285548.44 668934.40,3285548.44 668917.54,3285541.41 668917.54,3285541.41 668903.68,3285535.68 668903.68,3285535.68 668892.99,3285531.21 668892.99,3285531.21 668883.17,3285527.14 668883.17,3285527.14 668871.65,3285522.35 668871.65,3285522.35 668859.72,3285517.39 668859.72,3285517.39 668847.42,3285512.26 668847.42,3285512.26 668839.16,3285508.88 668839.16,3285508.88 668829.66,3285505.00 668829.66,3285505.00 668814.96,3285498.87 668814.96,3285498.87 668797.88,3285491.79 668797.88,3285491.79 668775.02,3285482.29 668775.02,3285482.29 668755.01,3285473.99 668755.01,3285473.99 668730.70,3285463.81 668730.70,3285463.81 668710.68,3285455.43 668710.68,3285455.43 668684.99,3285444.74 668684.99,3285444.74 668671.76,3285439.23">
        <lane index="0" width="3.66" type="shoulder" disallow="all" />
        <lane index="1" width="3.66" />
        <lane index="2" width="3.66" />
    </edge>
    <edge id="364.0" from="junction_91" to="node_364_end" numLanes="1" speed="13.89" type="town" shape="669250.43,3285691.07 669246.58,3285689.95 669246.58,3285689.95 669234.43,3285686.36 669234.43,3285686.36 669219.90,3285682.12 669219.90,3285682.12 669201.82,3285676.94 669201.82,3285676.94 669187.18,3285672.96 669187.18,3285672.96 669173.38,3285669.33 669173.38,3285669.33 669158.91,3285665.70 669158.91,3285665.70 669142.09,3285661.69 669142.09,3285661.69 669128.45,3285658.57 669128.45,3285658.57 669116.26,3285655.83 669116.26,3285655.83 669109.52,3285654.25">
        <lane index="0" width="3.66" />
    </edge>
    <edge id="365.0" from="node_365_start" to="junction_28" numLanes="1" speed="13.89" type="town" shape="668846.30,3285574.44 668842.44,3285566.09 668842.44,3285566.09 668839.32,3285561.67 668839.32,3285561.67 668834.15,3285555.45 668834.15,3285555.45 668826.80,3285548.51 668826.80,3285548.51 668817.04,3285541.51 668817.04,3285541.51 668798.28,3285529.17 668798.28,3285529.17 668773.66,3285512.19 668773.66,3285512.19 668745.66,3285494.25 668745.66,3285494.25 668723.22,3285479.81 668723.22,3285479.81 668716.23,3285475.43 668716.23,3285475.43 668707.61,3285470.22 668707.61,3285470.22 668698.69,3285465.03 668698.69,3285465.03 668691.23,3285460.75 668691.23,3285460.75 668682.10,3285455.80 668682.10,3285455.80 668670.66,3285449.62 668670.66,3285449.62 668667.83,3285448.19">
        <lane index="0" width="3.66" />
    </edge>
    <edge id="366.0" from="node_355_end" to="node_366_end" numLanes="2" speed="13.89" type="town" shape="669346.11,3285719.93 669333.83,3285714.80 669333.83,3285714.80 669320.87,3285709.37 669320.87,3285709.37 669300.36,3285700.86 669300.36,3285700.86 669286.95,3285695.24">
        <lane index="0" width="3.66" />
        <lane index="1" width="3.66" />
    </edge>
    <edge id="369.0" from="junction_28" to="node_361_start" numLanes="3" speed="13.89" type="town" shape="668630.38,3285421.95 668625.94,3285420.07 668625.94,3285420.07 668615.20,3285415.60 668615.20,3285415.60 668606.05,3285411.79 668606.05,3285411.79 668595.43,3285407.37 668595.43,3285407.37 668583.01,3285402.21 668583.01,3285402.21 668572.35,3285397.78 668572.35,3285397.78 668556.89,3285391.37 668556.89,3285391.37 668543.38,3285385.77 668543.38,3285385.77 668528.91,3285379.74 668528.91,3285379.74 668516.26,3285374.46 668516.26,3285374.46 668501.07,3285368.13 668501.07,3285368.13 668483.27,3285360.72 668483.27,3285360.72 668476.55,3285357.90">
        <lane index="0" width="3.66" />
        <lane index="1" width="3.66" />
        <lane index="2" width="3.66" />
    </edge>
    <edge id="370.0" from="node_361_start" to="node_361_end" numLanes="1" speed="13.89" type="town" shape="668474.07,3285364.35 668437.28,3285347.51 668437.28,3285347.51 668387.91,3285324.92">
        <lane index="0" width="3.66" />
    </edge>
    <edge id="371.0" from="node_366_end" to="junction_91" numLanes="3" speed="13.89" type="town" shape="669286.95,3285695.24 669280.66,3285692.62">
        <lane index="0" width="3.66" />
        <lane index="1" width="3.66" />
        <lane index="2" width="3.66" />
    </edge>