<?xml version="1.0" encoding="UTF-8"?>

<!-- generated on 2025-10-19 17:33:42 by Eclipse SUMO netconvert Version 1.23.1
<netconvertConfiguration xmlns:xsi="http://www.w3.org/2001/XMLSchema-instance" xsi:noNamespaceSchemaLocation="http://sumo.dlr.de/xsd/netconvertConfiguration.xsd">

    <input>
        <node-files value="/home/sdai/harry/TeraSim/jupiter/wb/jupiter_wb_tiles/tile_0081/tile_0081.nod.xml"/>
        <edge-files value="/home/sdai/harry/TeraSim/jupiter/wb/jupiter_wb_tiles/tile_0081/tile_0081.edg.xml"/>
        <connection-files value="/home/sdai/harry/TeraSim/jupiter/wb/jupiter_wb_tiles/tile_0081/tile_0081.con.xml"/>
    </input>

    <output>
        <output-file value="/home/sdai/harry/TeraSim/jupiter/wb/jupiter_wb_tiles/tile_0081/tile_0081.net.xml"/>
        <output.street-names value="true"/>
        <output.original-names value="true"/>
    </output>

    <processing>
        <geometry.remove value="false"/>
        <geometry.min-dist value="0.5"/>
        <edges.join value="false"/>
    </processing>

    <junctions>
        <no-internal-links value="false"/>
        <no-turnarounds value="true"/>
        <junctions.join value="true"/>
        <junctions.join-dist value="10"/>
        <junctions.corner-detail value="5"/>
        <junctions.internal-link-detail value="5"/>
        <junctions.limit-turn-speed value="5.5"/>
        <rectangular-lane-cut value="true"/>
        <check-lane-foes.all value="true"/>
    </junctions>

</netconvertConfiguration>
-->

<net version="1.20" junctionCornerDetail="5" junctionLinkDetail="5" rectangularLaneCut="true" limitTurnSpeed="5.50" checkLaneFoesAll="1" xmlns:xsi="http://www.w3.org/2001/XMLSchema-instance" xsi:noNamespaceSchemaLocation="http://sumo.dlr.de/xsd/net_file.xsd">

    <location netOffset="-664817.71,-3283416.88" convBoundary="0.00,0.00,12075.14,2670.70" origBoundary="0.00,0.00,676892.85,3286087.58" projParameter="!"/>

    <edge id=":j_merge_end_27_0" function="internal">
        <lane id=":j_merge_end_27_0_0" index="0" speed="13.89" length="46.06" width="3.66" shape="10953.54,2640.40 10942.16,2639.19 10930.63,2636.60 10919.11,2634.02 10907.73,2632.82"/>
        <lane id=":j_merge_end_27_0_1" index="1" speed="13.89" length="46.06" width="3.66" shape="10953.56,2636.74 10907.72,2636.48"/>
        <lane id=":j_merge_end_27_0_2" index="2" speed="13.89" length="46.06" width="3.66" shape="10953.58,2633.08 10907.73,2632.82"/>
    </edge>
    <edge id=":j_merge_start_27_0" function="internal">
        <lane id=":j_merge_start_27_0_0" index="0" speed="13.89" length="66.67" width="3.66" shape="11066.28,2640.81 10999.61,2640.65"/>
    </edge>
    <edge id=":j_merge_start_27_1" function="internal">
        <lane id=":j_merge_start_27_1_0" index="0" speed="13.89" length="66.72" width="3.66" shape="11066.34,2637.38 10999.63,2636.99"/>
        <lane id=":j_merge_start_27_1_1" index="1" speed="13.89" length="66.72" width="3.66" shape="11066.37,2633.72 10999.64,2633.33"/>
    </edge>
    <edge id=":junction_28_0" function="internal">
        <lane id=":junction_28_0_0" index="0" speed="13.89" length="44.65" width="3.66" shape="3849.30,2032.94 3809.10,2013.50"/>
    </edge>
    <edge id=":junction_28_1" function="internal">
        <lane id=":junction_28_1_0" index="0" speed="13.89" length="44.86" width="3.66" shape="3851.94,2027.42 3810.53,2010.13"/>
        <lane id=":junction_28_1_1" index="1" speed="13.89" length="44.86" width="3.66" shape="3853.35,2024.04 3811.96,2006.76"/>
    </edge>
    <edge id=":junction_91_0" function="internal">
        <lane id=":junction_91_0_0" index="0" speed="13.89" length="28.48" width="3.66" shape="4459.43,2284.19 4450.32,2280.79 4442.70,2278.54 4436.64,2277.05 4432.21,2275.95"/>
    </edge>
    <edge id=":junction_91_1" function="internal">
        <lane id=":junction_91_1_0" index="0" speed="13.89" length="29.05" width="3.66" shape="4460.84,2280.81 4434.04,2269.58"/>
        <lane id=":junction_91_1_1" index="1" speed="13.89" length="29.05" width="3.66" shape="4462.25,2277.43 4435.45,2266.21"/>
    </edge>
    <edge id=":node_352_end_0" function="internal">
        <lane id=":node_352_end_0_0" index="0" speed="13.89" length="3.00" width="3.66" shape="11168.16,2637.92 11165.16,2637.90"/>
        <lane id=":node_352_end_0_1" index="1" speed="13.89" length="3.00" width="3.66" shape="11168.18,2634.26 11165.18,2634.24"/>
    </edge>
    <edge id=":node_352_start_0" function="internal">
        <lane id=":node_352_start_0_0" index="0" speed="13.89" length="2.99" width="3.66" shape="12039.04,2642.61 12036.08,2642.61"/>
        <lane id=":node_352_start_0_1" index="1" speed="13.89" length="2.99" width="3.66" shape="12039.06,2638.95 12036.04,2638.95"/>
    </edge>
    <edge id=":node_355_end_0" function="internal">
        <lane id=":node_355_end_0_0" index="0" speed="13.89" length="7.83" width="3.66" shape="4529.93,2309.64 4522.62,2306.85"/>
    </edge>
    <edge id=":node_355_end_1" function="internal">
        <lane id=":node_355_end_1_0" index="0" speed="13.89" length="8.12" width="3.66" shape="4529.93,2309.64 4522.44,2306.51"/>
        <lane id=":node_355_end_1_1" index="1" speed="13.89" length="8.12" width="3.66" shape="4531.34,2306.26 4523.85,2303.13"/>
    </edge>
    <edge id=":node_356_end_0" function="internal">
        <lane id=":node_356_end_0_0" index="0" speed="13.89" length="0.29" width="3.66" shape="11166.46,2644.34 11166.17,2644.32"/>
    </edge>
    <edge id=":node_361_end_0" function="internal">
        <lane id=":node_361_end_0_0" index="0" speed="13.89" length="8.07" width="3.66" shape="3573.27,1911.46 3565.87,1908.24"/>
    </edge>
    <edge id=":node_361_end_1" function="internal">
        <lane id=":node_361_end_1_0" index="0" speed="13.89" length="8.00" width="3.66" shape="3573.26,1911.30 3565.87,1908.24"/>
        <lane id=":node_361_end_1_1" index="1" speed="13.89" length="8.00" width="3.66" shape="3574.66,1907.91 3567.27,1904.86"/>
    </edge>
    <edge id=":node_361_start_0" function="internal">
        <lane id=":node_361_start_0_0" index="0" speed="13.89" length="3.32" width="3.66" shape="3656.79,1950.08 3655.92,1949.64 3655.36,1949.25 3654.82,1948.85 3653.95,1948.38"/>
    </edge>
    <edge id=":node_361_start_1" function="internal">
        <lane id=":node_361_start_1_0" index="0" speed="13.89" length="3.00" width="3.66" shape="3658.21,1946.71 3655.44,1945.55"/>
        <lane id=":node_361_start_1_1" index="1" speed="13.89" length="3.00" width="3.66" shape="3659.62,1943.33 3656.86,1942.17"/>
    </edge>
    <edge id=":node_366_end_0" function="internal">
        <lane id=":node_366_end_0_0" index="0" speed="13.89" length="3.22" width="3.66" shape="4468.74,2284.10 4465.77,2282.86"/>
        <lane id=":node_366_end_0_1" index="1" speed="13.89" length="3.22" width="3.66" shape="4470.15,2280.73 4467.18,2279.48"/>
    </edge>
    <edge id=":node_366_end_2" function="internal">
        <lane id=":node_366_end_2_0" index="0" speed="13.89" length="3.13" width="3.66" shape="4467.37,2287.12 4464.36,2286.24"/>
    </edge>

    <edge id="351.0" from="junction_90" to="node_352_start" priority="-1" type="town" shape="12075.14,2637.33 12053.80,2637.21 12037.55,2637.11">
        <lane id="351.0_0" index="0" speed="13.89" length="36.07" width="3.66" shape="12075.11,2642.82 12053.77,2642.70 12039.04,2642.61"/>
        <lane id="351.0_1" index="1" speed="13.89" length="36.07" width="3.66" shape="12075.13,2639.16 12053.79,2639.04 12039.06,2638.95"/>
    </edge>
    <edge id="352.0" from="node_352_start" to="node_352_end" priority="-1" type="town" shape="12037.55,2637.11 12034.04,2637.14 12012.05,2637.02 11989.55,2636.95 11966.96,2636.94 11945.10,2636.83 11920.92,2636.66 11894.07,2636.50 11867.89,2636.31 11841.05,2636.08 11817.99,2635.96 11790.83,2635.81 11764.97,2635.66 11739.41,2635.51 11713.38,2635.37 11659.92,2635.17 11629.66,2634.97 11593.18,2634.75 11552.54,2634.53 11519.40,2634.28 11495.43,2634.11 11470.34,2633.93 11442.73,2633.70 11412.49,2633.55 11375.25,2633.33 11341.98,2633.18 11319.72,2633.12 11273.77,2632.94 11223.14,2632.68 11192.13,2632.51 11166.69,2632.42">
        <lane id="352.0_0" index="0" disallow="all" speed="13.89" length="867.93" width="3.66" shape="12036.11,2646.27 12034.05,2646.29 12012.01,2646.17 11989.53,2646.10 11966.94,2646.09 11945.04,2645.98 11920.86,2645.81 11894.01,2645.65 11867.82,2645.46 11840.99,2645.23 11817.94,2645.11 11790.78,2644.96 11764.92,2644.81 11739.36,2644.66 11713.34,2644.52 11659.88,2644.32 11629.60,2644.12 11593.13,2643.90 11552.48,2643.68 11519.33,2643.43 11495.37,2643.26 11470.27,2643.08 11442.67,2642.85 11412.44,2642.70 11375.20,2642.48 11341.95,2642.33 11319.69,2642.27 11273.73,2642.09 11223.09,2641.83 11192.09,2641.66 11168.15,2641.58" type="shoulder"/>
        <lane id="352.0_1" index="1" speed="13.89" length="867.93" width="3.66" shape="12036.08,2642.61 12034.05,2642.63 12012.03,2642.51 11989.54,2642.44 11966.95,2642.43 11945.07,2642.32 11920.88,2642.15 11894.03,2641.99 11867.85,2641.80 11841.01,2641.57 11817.96,2641.45 11790.80,2641.30 11764.94,2641.15 11739.38,2641.00 11713.36,2640.86 11659.89,2640.66 11629.63,2640.46 11593.15,2640.24 11552.51,2640.02 11519.36,2639.77 11495.39,2639.60 11470.30,2639.42 11442.69,2639.19 11412.46,2639.04 11375.22,2638.82 11341.96,2638.67 11319.70,2638.61 11273.75,2638.43 11223.11,2638.17 11192.11,2638.00 11168.16,2637.92"/>
        <lane id="352.0_2" index="2" speed="13.89" length="867.93" width="3.66" shape="12036.04,2638.95 12034.04,2638.97 12012.04,2638.85 11989.55,2638.78 11966.96,2638.77 11945.09,2638.66 11920.91,2638.49 11894.06,2638.33 11867.88,2638.14 11841.04,2637.91 11817.98,2637.79 11790.82,2637.64 11764.96,2637.49 11739.40,2637.34 11713.37,2637.20 11659.91,2637.00 11629.65,2636.80 11593.17,2636.58 11552.53,2636.36 11519.39,2636.11 11495.42,2635.94 11470.33,2635.76 11442.72,2635.53 11412.48,2635.38 11375.24,2635.16 11341.97,2635.01 11319.71,2634.95 11273.76,2634.77 11223.13,2634.51 11192.12,2634.34 11168.18,2634.26"/>
    </edge>
    <edge id="353.0" from="node_352_end" to="j_merge_start_27" priority="-1" type="town" shape="11166.69,2632.42 11149.36,2632.30 11125.85,2632.18 11100.71,2632.09 11080.17,2631.98 11066.38,2631.89">
        <lane id="353.0_0" index="0" speed="13.89" length="98.82" width="3.66" shape="11165.16,2637.90 11149.33,2637.79 11125.83,2637.67 11100.69,2637.58 11080.14,2637.47 11066.34,2637.38"/>
        <lane id="353.0_1" index="1" speed="13.89" length="98.82" width="3.66" shape="11165.18,2634.24 11149.35,2634.13 11125.84,2634.01 11100.70,2633.92 11080.16,2633.81 11066.37,2633.72"/>
    </edge>
    <edge id="355.0" from="j_merge_end_27" to="node_355_end" priority="-1" type="town" shape="10907.74,2630.99 10897.66,2630.95 10879.97,2630.86 10863.61,2630.75 10842.56,2630.63 10823.67,2630.49 10805.54,2630.47 10783.64,2630.33 10761.65,2630.28 10738.99,2630.24 10720.06,2630.19 10697.92,2630.09 10681.37,2630.08 10660.35,2630.01 10643.91,2629.99 10624.68,2629.91 10608.49,2629.85 10592.35,2629.77 10573.32,2629.70 10551.72,2629.56 10528.46,2629.45 10506.20,2629.36 10482.78,2629.24 10460.22,2629.14 10435.22,2629.02 10410.73,2628.94 10389.18,2628.84 10368.43,2628.73 10347.01,2628.59 10321.45,2628.44 10293.71,2628.24 10267.22,2628.10 10237.80,2627.99 10213.08,2627.92 10192.38,2627.85 10169.88,2627.81 10146.88,2627.67 10127.38,2627.51 10103.74,2627.45 10082.59,2627.34 10060.87,2627.26 10037.44,2627.16 10019.24,2627.06 9998.35,2626.95 9978.46,2626.86 9958.57,2626.72 9939.72,2626.65 9919.38,2626.53 9897.97,2626.45 9878.37,2626.31 9859.14,2626.22 9839.19,2626.10 9821.51,2626.05 9801.70,2625.97 9780.22,2625.89 9757.54,2625.83 9730.79,2625.76 9705.22,2625.59 9683.74,2625.54 9660.02,2625.41 9635.42,2625.28 9612.39,2625.13 9588.67,2624.98 9563.21,2624.89 9540.84,2624.79 9522.21,2624.71 9494.75,2624.63 9473.94,2624.52 9455.49,2624.41 9434.58,2624.30 9417.40,2624.20 9395.15,2624.11 9371.58,2624.02 9345.60,2623.86 9323.78,2623.75 9304.88,2623.64 9284.99,2623.61 9264.24,2623.57 9245.31,2623.45 9223.75,2623.35 9202.13,2623.25 9180.03,2623.16 9156.97,2623.10 9135.61,2622.93 9110.81,2622.77 9091.08,2622.63 9069.11,2622.59 9046.08,2622.54 9023.61,2622.49 8999.41,2622.35 8970.93,2622.25 8945.58,2622.07 8923.08,2621.91 8896.17,2621.88 8873.27,2621.81 8848.12,2621.73 8825.14,2621.63 8803.23,2621.54 8774.75,2621.47 8750.02,2621.40 8728.35,2621.27 8702.83,2621.22 8678.78,2621.08 8660.16,2620.94 8640.62,2620.91 8616.47,2620.77 8597.45,2620.67 8576.13,2620.53 8556.15,2620.44 8531.38,2620.35 8504.76,2620.21 8478.56,2620.05 8452.81,2619.94 8428.08,2619.85 8402.98,2619.72 8377.35,2619.64 8353.38,2619.58 8327.62,2619.43 8305.19,2619.31 8281.68,2619.25 8252.54,2619.12 8231.86,2618.94 8205.88,2618.84 8177.63,2618.76 8154.02,2618.68 8130.06,2618.56 8107.36,2618.45 8083.50,2618.31 8058.04,2618.23 8029.93,2618.08 8002.78,2617.99 7975.96,2617.85 7949.54,2617.78 7927.20,2617.71 7905.57,2617.61 7878.25,2617.46 7849.05,2617.31 7826.35,2617.33 7807.98,2617.23 7781.29,2617.07 7752.83,2617.00 7734.12,2616.87 7711.02,2616.76 7691.03,2616.67 7670.46,2616.58 7650.82,2616.46 7631.09,2616.35 7613.04,2616.22 7584.96,2616.10 7560.28,2616.03 7535.42,2615.88 7509.84,2615.77 7485.62,2615.65 7458.63,2615.49 7432.78,2615.36 7403.47,2615.21 7372.04,2615.06 7365.29,2615.06 7348.63,2614.96 7332.03,2614.85 7314.18,2614.80 7297.44,2614.75 7281.73,2614.71 7258.95,2614.66 7237.67,2614.52 7213.88,2614.38 7188.65,2614.20 7164.23,2614.12 7138.15,2613.91 7086.42,2613.63 7070.82,2613.52 7054.35,2613.39 7036.11,2613.28 7017.22,2613.17 6999.34,2613.07 6976.98,2612.92 6955.05,2612.86 6933.21,2612.79 6913.64,2612.67 6888.71,2612.58 6863.06,2612.47 6845.14,2612.41 6818.04,2612.19 6794.16,2612.05 6770.51,2611.85 6744.97,2611.81 6723.21,2611.69 6697.81,2611.59 6677.94,2611.53 6661.41,2611.46 6639.89,2611.31 6607.06,2611.16 6568.50,2610.98 6536.38,2610.80 6506.85,2610.65 6474.47,2610.49 6441.92,2610.28 6422.03,2610.17 6404.97,2610.13 6381.52,2609.96 6364.35,2609.86 6351.10,2609.78 6330.12,2609.67 6312.75,2609.58 6298.87,2609.48 6277.95,2609.39 6261.36,2609.29 6237.49,2609.22 6216.74,2609.03 6193.73,2608.96 6170.92,2608.90 6155.63,2608.79 6125.81,2608.78 6110.62,2608.72 6090.08,2608.62 6070.53,2608.49 6046.18,2608.42 6019.15,2608.26 5990.47,2608.20 5959.15,2608.09 5925.12,2608.01 5885.55,2607.82 5848.31,2607.74 5838.26,2607.70 5826.72,2607.72 5813.38,2607.68 5799.45,2607.65 5785.23,2607.61 5767.04,2607.49 5747.93,2607.40 5725.98,2607.30 5702.75,2607.32 5678.23,2607.19 5660.46,2607.09 5641.96,2606.96 5622.73,2606.86 5603.30,2606.61 5584.88,2606.40 5557.78,2605.78 5537.09,2605.07 5521.07,2604.24 5502.81,2603.25 5484.21,2602.10 5463.85,2600.53 5444.27,2598.80 5429.48,2597.38 5412.33,2595.63 5393.76,2593.44 5376.34,2591.16 5362.52,2589.31 5346.72,2587.01 5329.09,2584.28 5313.30,2581.70 5295.14,2578.55 5275.86,2574.95 5271.65,2574.14 5264.61,2572.76 5256.44,2571.10 5246.75,2569.08 5235.04,2566.60 5216.17,2562.37 5193.97,2557.17 5175.32,2552.55 5168.30,2550.72 5158.63,2548.17 5145.01,2544.45 5125.14,2538.90 5108.55,2534.20 5090.09,2528.64 5072.07,2522.97 5051.60,2516.23 5028.48,2508.42 5007.83,2500.88 4978.88,2490.05 4954.26,2480.46 4924.24,2468.33 4914.57,2464.41 4905.05,2460.48 4895.96,2456.68 4884.79,2452.01 4870.94,2446.24 4854.83,2439.48 4842.44,2434.27 4825.58,2427.27 4804.59,2418.51 4784.98,2410.29 4770.09,2404.06 4756.54,2398.36 4743.04,2392.73 4734.73,2389.24 4724.22,2384.88 4711.36,2379.50 4699.23,2374.48 4691.68,2371.29 4687.40,2369.50 4680.77,2366.75 4672.21,2363.15 4661.84,2358.83 4652.21,2354.85 4642.01,2350.54 4633.95,2347.21 4624.87,2343.37 4612.69,2338.27 4601.77,2333.68 4585.45,2326.87 4569.61,2320.30 4555.58,2314.43 4543.33,2309.29 4528.40,2303.05">
        <lane id="355.0_0" index="0" disallow="all" speed="13.89" length="6429.18" width="3.66" shape="10907.70,2640.14 10897.62,2640.10 10879.92,2640.01 10863.55,2639.90 10842.50,2639.78 10823.63,2639.64 10805.51,2639.62 10783.60,2639.48 10761.63,2639.43 10738.97,2639.39 10720.03,2639.34 10697.89,2639.24 10681.35,2639.23 10660.33,2639.16 10643.88,2639.14 10624.64,2639.06 10608.45,2639.00 10592.31,2638.92 10573.27,2638.85 10551.67,2638.71 10528.42,2638.60 10506.16,2638.51 10482.74,2638.39 10460.18,2638.29 10435.18,2638.17 10410.69,2638.09 10389.13,2637.99 10368.38,2637.88 10346.95,2637.74 10321.39,2637.59 10293.65,2637.39 10267.18,2637.25 10237.77,2637.14 10213.05,2637.07 10192.36,2637.00 10169.84,2636.96 10146.82,2636.82 10127.33,2636.66 10103.71,2636.60 10082.55,2636.49 10060.83,2636.41 10037.40,2636.31 10019.19,2636.21 9998.31,2636.10 9978.41,2636.01 9958.52,2635.87 9939.68,2635.80 9919.34,2635.68 9897.92,2635.60 9878.32,2635.46 9859.09,2635.37 9839.15,2635.25 9821.48,2635.20 9801.66,2635.12 9780.19,2635.04 9757.52,2634.98 9730.75,2634.91 9705.18,2634.74 9683.70,2634.69 9659.97,2634.56 9635.37,2634.43 9612.33,2634.28 9588.63,2634.13 9563.17,2634.04 9540.80,2633.94 9522.18,2633.86 9494.71,2633.78 9473.89,2633.67 9455.44,2633.56 9434.53,2633.45 9417.36,2633.35 9395.11,2633.26 9371.53,2633.17 9345.55,2633.01 9323.73,2632.90 9304.85,2632.79 9284.97,2632.76 9264.20,2632.72 9245.26,2632.60 9223.71,2632.50 9202.09,2632.40 9180.00,2632.31 9156.92,2632.25 9135.54,2632.08 9110.75,2631.92 9091.04,2631.78 9069.09,2631.74 9046.06,2631.69 9023.57,2631.64 8999.37,2631.50 8970.88,2631.40 8945.52,2631.22 8923.04,2631.06 8896.15,2631.03 8873.24,2630.96 8848.09,2630.88 8825.10,2630.78 8803.20,2630.69 8774.73,2630.62 8749.98,2630.55 8728.31,2630.42 8702.80,2630.37 8678.72,2630.23 8660.12,2630.09 8640.59,2630.06 8616.42,2629.92 8597.40,2629.82 8576.08,2629.68 8556.11,2629.59 8531.34,2629.50 8504.71,2629.36 8478.51,2629.20 8452.77,2629.09 8428.04,2629.00 8402.94,2628.87 8377.32,2628.79 8353.34,2628.73 8327.57,2628.58 8305.15,2628.46 8281.65,2628.40 8252.48,2628.27 8231.80,2628.09 8205.85,2627.99 8177.60,2627.91 8153.98,2627.83 8130.02,2627.71 8107.31,2627.60 8083.46,2627.46 8058.00,2627.38 8029.89,2627.23 8002.74,2627.14 7975.92,2627.00 7949.51,2626.93 7927.16,2626.86 7905.52,2626.76 7878.20,2626.61 7849.03,2626.46 7826.33,2626.48 7807.93,2626.38 7781.25,2626.22 7752.79,2626.15 7734.07,2626.02 7710.98,2625.91 7690.99,2625.82 7670.41,2625.73 7650.77,2625.61 7631.03,2625.50 7612.99,2625.37 7584.93,2625.25 7560.24,2625.18 7535.37,2625.03 7509.80,2624.92 7485.57,2624.80 7458.58,2624.64 7432.73,2624.51 7403.43,2624.36 7372.00,2624.21 7365.26,2624.21 7348.57,2624.11 7331.99,2624.00 7314.15,2623.95 7297.41,2623.90 7281.71,2623.86 7258.91,2623.81 7237.61,2623.67 7213.82,2623.53 7188.60,2623.35 7164.18,2623.27 7138.09,2623.06 7086.37,2622.78 7070.75,2622.67 7054.29,2622.54 7036.06,2622.43 7017.17,2622.32 6999.28,2622.22 6976.94,2622.07 6955.02,2622.01 6933.17,2621.94 6913.60,2621.82 6888.67,2621.73 6863.02,2621.62 6845.09,2621.56 6817.98,2621.34 6794.09,2621.20 6770.46,2621.00 6744.94,2620.96 6723.17,2620.84 6697.78,2620.74 6677.91,2620.68 6661.36,2620.61 6639.84,2620.46 6607.02,2620.31 6568.45,2620.13 6536.33,2619.95 6506.80,2619.80 6474.42,2619.64 6441.86,2619.43 6421.99,2619.32 6404.93,2619.28 6381.46,2619.11 6364.30,2619.01 6351.05,2618.93 6330.07,2618.82 6312.69,2618.73 6298.82,2618.63 6277.90,2618.54 6261.32,2618.44 6237.44,2618.37 6216.68,2618.18 6193.70,2618.11 6170.88,2618.05 6155.60,2617.94 6125.80,2617.93 6110.58,2617.87 6090.03,2617.77 6070.49,2617.64 6046.14,2617.57 6019.11,2617.41 5990.44,2617.35 5959.12,2617.24 5925.09,2617.16 5885.52,2616.97 5848.29,2616.89 5838.25,2616.85 5826.71,2616.87 5813.36,2616.83 5799.43,2616.80 5785.19,2616.76 5766.99,2616.64 5747.89,2616.55 5725.96,2616.45 5702.73,2616.47 5678.18,2616.34 5660.40,2616.24 5641.90,2616.11 5622.65,2616.01 5603.19,2615.76 5584.72,2615.55 5557.52,2614.93 5536.70,2614.21 5520.59,2613.38 5502.28,2612.38 5483.58,2611.23 5463.10,2609.65 5443.43,2607.91 5428.58,2606.49 5411.33,2604.73 5392.63,2602.52 5375.14,2600.23 5361.25,2598.37 5345.36,2596.06 5327.65,2593.32 5311.78,2590.72 5293.52,2587.56 5274.17,2583.94 5269.90,2583.12 5262.82,2581.73 5254.59,2580.06 5244.87,2578.03 5233.09,2575.54 5214.13,2571.29 5191.83,2566.07 5173.09,2561.42 5165.98,2559.57 5156.26,2557.01 5142.57,2553.27 5122.66,2547.71 5105.98,2542.98 5087.40,2537.39 5069.27,2531.68 5048.71,2524.91 5025.45,2517.05 5004.66,2509.46 4975.62,2498.60 4950.89,2488.97 4920.81,2476.81 4911.11,2472.88 4901.54,2468.93 4892.43,2465.12 4881.27,2460.45 4867.41,2454.68 4851.29,2447.92 4838.92,2442.71 4822.06,2435.72 4801.06,2426.95 4781.45,2418.73 4766.55,2412.50 4753.01,2406.80 4739.51,2401.17 4731.21,2397.68 4720.70,2393.33 4707.84,2387.95 4695.71,2382.92 4688.13,2379.72 4683.88,2377.95 4677.24,2375.19 4668.68,2371.59 4658.33,2367.28 4648.68,2363.29 4638.48,2358.98 4630.42,2355.65 4621.32,2351.80 4609.15,2346.71 4598.24,2342.12 4581.94,2335.32 4566.09,2328.75 4552.04,2322.87 4539.80,2317.73 4528.52,2313.02" type="shoulder"/>
        <lane id="355.0_1" index="1" speed="13.89" length="6429.18" width="3.66" shape="10907.72,2636.48 10897.63,2636.44 10879.94,2636.35 10863.58,2636.24 10842.52,2636.12 10823.65,2635.98 10805.52,2635.96 10783.62,2635.82 10761.64,2635.77 10738.98,2635.73 10720.04,2635.68 10697.90,2635.58 10681.36,2635.57 10660.34,2635.50 10643.89,2635.48 10624.66,2635.40 10608.47,2635.34 10592.33,2635.26 10573.29,2635.19 10551.69,2635.05 10528.44,2634.94 10506.18,2634.85 10482.75,2634.73 10460.19,2634.63 10435.20,2634.51 10410.71,2634.43 10389.15,2634.33 10368.40,2634.22 10346.98,2634.08 10321.41,2633.93 10293.68,2633.73 10267.20,2633.59 10237.78,2633.48 10213.06,2633.41 10192.37,2633.34 10169.86,2633.30 10146.84,2633.16 10127.35,2633.00 10103.72,2632.94 10082.57,2632.83 10060.85,2632.75 10037.41,2632.65 10019.21,2632.55 9998.32,2632.44 9978.43,2632.35 9958.54,2632.21 9939.69,2632.14 9919.35,2632.02 9897.94,2631.94 9878.34,2631.80 9859.11,2631.71 9839.17,2631.59 9821.49,2631.54 9801.68,2631.46 9780.20,2631.38 9757.53,2631.32 9730.76,2631.25 9705.19,2631.08 9683.72,2631.03 9659.99,2630.90 9635.39,2630.77 9612.36,2630.62 9588.64,2630.47 9563.19,2630.38 9540.82,2630.28 9522.19,2630.20 9494.73,2630.12 9473.91,2630.01 9455.46,2629.90 9434.55,2629.79 9417.37,2629.69 9395.13,2629.60 9371.55,2629.51 9345.57,2629.35 9323.75,2629.24 9304.86,2629.13 9284.98,2629.10 9264.22,2629.06 9245.28,2628.94 9223.72,2628.84 9202.11,2628.74 9180.01,2628.65 9156.94,2628.59 9135.57,2628.42 9110.77,2628.26 9091.06,2628.12 9069.10,2628.08 9046.07,2628.03 9023.59,2627.98 8999.39,2627.84 8970.90,2627.74 8945.54,2627.56 8923.06,2627.40 8896.16,2627.37 8873.25,2627.30 8848.10,2627.22 8825.12,2627.12 8803.21,2627.03 8774.74,2626.96 8750.00,2626.89 8728.33,2626.76 8702.81,2626.71 8678.74,2626.57 8660.14,2626.43 8640.60,2626.40 8616.44,2626.26 8597.42,2626.16 8576.10,2626.02 8556.13,2625.93 8531.36,2625.84 8504.73,2625.70 8478.53,2625.54 8452.79,2625.43 8428.06,2625.34 8402.96,2625.21 8377.33,2625.13 8353.36,2625.07 8327.59,2624.92 8305.17,2624.80 8281.66,2624.74 8252.51,2624.61 8231.83,2624.43 8205.86,2624.33 8177.61,2624.25 8154.00,2624.17 8130.03,2624.05 8107.33,2623.94 8083.48,2623.80 8058.02,2623.72 8029.91,2623.57 8002.76,2623.48 7975.94,2623.34 7949.52,2623.27 7927.18,2623.20 7905.54,2623.10 7878.22,2622.95 7849.04,2622.80 7826.34,2622.82 7807.95,2622.72 7781.27,2622.56 7752.81,2622.49 7734.09,2622.36 7710.99,2622.25 7691.01,2622.16 7670.43,2622.07 7650.79,2621.95 7631.06,2621.84 7613.01,2621.71 7584.94,2621.59 7560.26,2621.52 7535.39,2621.37 7509.81,2621.26 7485.59,2621.14 7458.60,2620.98 7432.75,2620.85 7403.44,2620.70 7372.02,2620.55 7365.27,2620.55 7348.60,2620.45 7332.00,2620.34 7314.16,2620.29 7297.43,2620.24 7281.72,2620.20 7258.93,2620.15 7237.64,2620.01 7213.84,2619.87 7188.62,2619.69 7164.20,2619.61 7138.11,2619.40 7086.39,2619.12 7070.78,2619.01 7054.31,2618.88 7036.08,2618.77 7017.19,2618.66 6999.31,2618.56 6976.95,2618.41 6955.03,2618.35 6933.19,2618.28 6913.61,2618.16 6888.69,2618.07 6863.04,2617.96 6845.11,2617.90 6818.00,2617.68 6794.12,2617.54 6770.48,2617.34 6744.95,2617.30 6723.18,2617.18 6697.79,2617.08 6677.92,2617.02 6661.38,2616.95 6639.86,2616.80 6607.03,2616.65 6568.47,2616.47 6536.35,2616.29 6506.82,2616.14 6474.44,2615.98 6441.89,2615.77 6422.01,2615.66 6404.94,2615.62 6381.48,2615.45 6364.32,2615.35 6351.07,2615.27 6330.09,2615.16 6312.72,2615.07 6298.84,2614.97 6277.92,2614.88 6261.34,2614.78 6237.46,2614.71 6216.71,2614.52 6193.71,2614.45 6170.90,2614.39 6155.61,2614.28 6125.80,2614.27 6110.60,2614.21 6090.05,2614.11 6070.51,2613.98 6046.16,2613.91 6019.13,2613.75 5990.45,2613.69 5959.13,2613.58 5925.10,2613.50 5885.53,2613.31 5848.30,2613.23 5838.26,2613.19 5826.72,2613.21 5813.37,2613.17 5799.44,2613.14 5785.20,2613.10 5767.01,2612.98 5747.90,2612.89 5725.97,2612.79 5702.74,2612.81 5678.20,2612.68 5660.43,2612.58 5641.93,2612.45 5622.68,2612.35 5603.23,2612.10 5584.79,2611.89 5557.62,2611.27 5536.85,2610.56 5520.78,2609.72 5502.49,2608.73 5483.83,2607.58 5463.40,2606.00 5443.77,2604.27 5428.94,2602.84 5411.73,2601.09 5393.08,2598.89 5375.62,2596.60 5361.76,2594.75 5345.90,2592.44 5328.23,2589.70 5312.39,2587.11 5294.17,2583.95 5274.85,2580.35 5270.60,2579.53 5263.53,2578.14 5255.33,2576.48 5245.62,2574.45 5233.87,2571.96 5214.94,2567.72 5192.68,2562.51 5173.98,2557.87 5166.91,2556.03 5157.21,2553.47 5143.55,2549.74 5123.65,2544.19 5107.01,2539.47 5088.47,2533.89 5070.39,2528.20 5049.86,2521.44 5026.66,2513.60 5005.93,2506.03 4976.92,2495.18 4952.24,2485.56 4922.18,2473.42 4912.49,2469.49 4902.94,2465.55 4893.84,2461.75 4882.68,2457.08 4868.82,2451.30 4852.70,2444.54 4840.33,2439.34 4823.47,2432.34 4802.47,2423.57 4782.86,2415.35 4767.97,2409.12 4754.42,2403.42 4740.92,2397.80 4732.62,2394.31 4722.11,2389.95 4709.25,2384.57 4697.12,2379.55 4689.55,2376.35 4685.29,2374.57 4678.65,2371.82 4670.09,2368.21 4659.74,2363.90 4650.09,2359.92 4639.89,2355.60 4631.83,2352.27 4622.74,2348.43 4610.57,2343.33 4599.65,2338.74 4583.34,2331.94 4567.50,2325.37 4553.46,2319.49 4541.21,2314.35 4529.93,2309.64"/>