<?xml version='1.0' encoding='utf-8'?>
<connections>
    <connection from="360.0" to="merge_zone_27" fromLane="0" toLane="0" />
    <connection from="merge_zone_27" to="355.0" fromLane="0" toLane="2" dir="r" state="m" />
    <connection from="353.0" to="merge_zone_27" fromLane="0" toLane="1" />
    <connection from="353.0" to="merge_zone_27" fromLane="1" toLane="2" />
    <connection from="merge_zone_27" to="355.0" fromLane="1" toLane="1" />
    <connection from="merge_zone_27" to="355.0" fromLane="2" toLane="2" />
    <connection from="363.0" to="369.0" fromLane="2" toLane="2" />
    <connection from="363.0" to="369.0" fromLane="1" toLane="1" />
    <connection from="371.0" to="363.0" fromLane="2" toLane="2" />
    <connection from="371.0" to="363.0" fromLane="1" toLane="1" />
    <connection from="371.0" to="364.0" fromLane="0" toLane="0" />
</connections>