<?xml version='1.0' encoding='utf-8'?>
<edges>
    <edge id="548.0" from="node_548_start" to="junction_90" numLanes="3" speed="13.89" type="town" shape="715665.83,3286740.04 715675.19,3286740.45 715675.19,3286740.45 715692.81,3286741.32 715692.81,3286741.32 715706.78,3286741.85 715706.78,3286741.85 715721.66,3286742.40 715721.66,3286742.40 715743.63,3286743.11 715743.63,3286743.11 715764.61,3286743.72 715764.61,3286743.72 715780.30,3286744.19 715780.30,3286744.19 715794.72,3286744.56 715794.72,3286744.56 715812.50,3286745.09 715812.50,3286745.09 715830.65,3286745.64 715830.65,3286745.64 715849.21,3286746.14 715849.21,3286746.14 715867.62,3286746.62 715867.62,3286746.62 715885.07,3286747.09 715885.07,3286747.09 715905.71,3286747.68 715905.71,3286747.68 715923.77,3286748.20 715923.77,3286748.20 715942.33,3286748.71 715942.33,3286748.71 715956.01,3286749.14 715956.01,3286749.14 715972.23,3286749.55 715972.23,3286749.55 715993.21,3286750.13 715993.21,3286750.13 716015.73,3286750.72 716015.73,3286750.72 716035.57,3286751.24 716035.57,3286751.24 716055.82,3286751.86 716055.82,3286751.86 716081.69,3286752.55 716081.69,3286752.55 716101.56,3286753.12 716101.56,3286753.12 716126.27,3286753.76 716126.27,3286753.76 716165.66,3286754.94 716165.66,3286754.94 716194.03,3286755.68 716194.03,3286755.68 716219.36,3286756.39 716219.36,3286756.39 716238.36,3286756.88 716238.36,3286756.88 716253.82,3286757.33 716253.82,3286757.33 716275.31,3286757.94 716275.31,3286757.94 716291.85,3286758.38 716291.85,3286758.38 716314.85,3286758.99 716314.85,3286758.99 716329.07,3286759.36 716329.07,3286759.36 716350.49,3286759.93 716350.49,3286759.93 716374.94,3286760.65 716374.94,3286760.65 716403.94,3286761.45 716403.94,3286761.45 716427.09,3286762.12 716427.09,3286762.12 716449.42,3286762.78 716449.42,3286762.78 716474.74,3286763.44 716474.74,3286763.44 716495.90,3286764.03 716495.90,3286764.03 716520.86,3286764.73 716520.86,3286764.73 716544.96,3286765.36 716544.96,3286765.36 716575.96,3286766.19 716575.96,3286766.19 716602.86,3286766.91 716602.86,3286766.91 716622.22,3286767.45 716622.22,3286767.45 716645.98,3286768.14 716645.98,3286768.14 716672.38,3286768.87 716672.38,3286768.87 716703.74,3286769.80 716703.74,3286769.80 716739.49,3286770.78 716739.49,3286770.78 716760.54,3286771.38 716760.54,3286771.38 716785.41,3286772.06 716785.41,3286772.06 716811.91,3286772.74 716811.91,3286772.74 716839.54,3286773.55 716839.54,3286773.55 716872.13,3286774.42 716872.13,3286774.42 716913.39,3286775.55 716913.39,3286775.55 716942.75,3286776.36 716942.75,3286776.36 716975.54,3286777.22 716975.54,3286777.22 717014.76,3286778.31 717014.76,3286778.31 717054.27,3286779.42 717054.27,3286779.42 717097.52,3286780.62 717097.52,3286780.62 717117.36,3286781.16 717117.36,3286781.16 717140.82,3286781.82 717140.82,3286781.82 717171.01,3286782.65 717171.01,3286782.65 717200.37,3286783.47 717200.37,3286783.47 717226.57,3286784.19 717226.57,3286784.19 717250.67,3286784.91 717250.67,3286784.91 717265.41,3286785.30 717265.41,3286785.30 717288.46,3286785.97 717288.46,3286785.97 717309.57,3286786.55 717309.57,3286786.55 717331.03,3286787.13 717331.03,3286787.13 717352.14,3286787.68 717352.14,3286787.68 717373.96,3286788.27 717373.96,3286788.27 717395.21,3286788.91 717395.21,3286788.91 717417.98,3286789.53 717417.98,3286789.53 717440.77,3286790.21 717440.77,3286790.21 717459.53,3286790.68 717459.53,3286790.68 717483.69,3286791.36 717483.69,3286791.36 717512.65,3286792.15 717512.65,3286792.15 717533.41,3286792.69 717533.41,3286792.69 717557.43,3286793.32 717557.43,3286793.32 717575.86,3286793.87 717575.86,3286793.87 717596.21,3286794.41 717596.21,3286794.41 717615.72,3286794.99 717615.72,3286794.99 717636.92,3286795.54 717636.92,3286795.54 717656.10,3286796.06 717656.10,3286796.06 717681.18,3286796.78 717681.18,3286796.78 717707.07,3286797.50 717707.07,3286797.50 717734.94,3286798.26 717734.94,3286798.26 717767.92,3286799.18 717767.92,3286799.18 717797.33,3286800.01 717797.33,3286800.01 717820.67,3286800.62 717820.67,3286800.62 717841.81,3286801.20 717841.81,3286801.20 717856.47,3286801.63 717856.47,3286801.63 717873.48,3286802.11 717873.48,3286802.11 717889.80,3286802.53 717889.80,3286802.53 717907.75,3286802.99 717907.75,3286802.99 717920.49,3286803.34 717920.49,3286803.34 717939.58,3286803.87 717939.58,3286803.87 717957.47,3286804.39 717957.47,3286804.39 717980.47,3286805.04 717980.47,3286805.04 718003.09,3286805.67 718003.09,3286805.67 718030.28,3286806.43 718030.28,3286806.43 718057.85,3286807.21 718057.85,3286807.21 718090.44,3286808.05 718090.44,3286808.05 718126.65,3286809.04 718126.65,3286809.04 718160.93,3286810.00 718160.93,3286810.00 718198.46,3286811.00 718198.46,3286811.00 718237.51,3286812.08 718237.51,3286812.08 718267.98,3286812.92 718267.98,3286812.92 718299.57,3286813.75 718299.57,3286813.75 718331.94,3286814.68 718331.94,3286814.68 718361.05,3286815.44 718361.05,3286815.44 718384.34,3286816.11 718384.34,3286816.11 718413.27,3286816.94 718413.27,3286816.94 718443.27,3286817.75 718443.27,3286817.75 718468.83,3286818.46 718468.83,3286818.46 718488.25,3286818.99 718488.25,3286818.99 718511.88,3286819.63 718511.88,3286819.63 718534.76,3286820.25 718534.76,3286820.25 718555.54,3286820.81 718555.54,3286820.81 718574.89,3286821.31 718574.89,3286821.31 718592.14,3286821.78 718592.14,3286821.78 718608.67,3286822.27 718608.67,3286822.27 718621.64,3286822.60 718621.64,3286822.60 718642.60,3286823.18 718642.60,3286823.18 718666.34,3286823.89 718666.34,3286823.89 718690.46,3286824.59 718690.46,3286824.59 718713.20,3286825.22 718713.20,3286825.22 718731.97,3286825.77 718731.97,3286825.77 718751.58,3286826.33 718751.58,3286826.33 718772.76,3286826.97 718772.76,3286826.97 718794.15,3286827.49 718794.15,3286827.49 718817.06,3286828.23 718817.06,3286828.23 718838.51,3286828.79 718838.51,3286828.79 718861.72,3286829.47 718861.72,3286829.47 718887.13,3286830.24 718887.13,3286830.24 718909.93,3286830.81 718909.93,3286830.81 718934.62,3286831.49 718934.62,3286831.49 718961.20,3286832.27 718961.20,3286832.27 718986.81,3286833.03 718986.81,3286833.03 719012.19,3286833.72 719012.19,3286833.72 719038.24,3286834.48 719038.24,3286834.48 719064.71,3286835.21 719064.71,3286835.21 719093.47,3286835.95 719093.47,3286835.95 719122.24,3286836.81 719122.24,3286836.81 719149.64,3286837.54 719149.64,3286837.54 719176.57,3286838.26 719176.57,3286838.26 719198.39,3286838.86 719198.39,3286838.86 719226.46,3286839.62 719226.46,3286839.62 719257.58,3286840.43 719257.58,3286840.43 719288.06,3286841.20 719288.06,3286841.20 719320.23,3286841.57 719320.23,3286841.57 719354.40,3286841.30 719354.40,3286841.30 719372.73,3286840.92 719372.73,3286840.92 719384.86,3286840.54 719384.86,3286840.54 719408.13,3286839.58 719408.13,3286839.58 719429.95,3286838.43 719429.95,3286838.43 719451.00,3286837.07 719451.00,3286837.07 719470.46,3286835.52 719470.46,3286835.52 719491.34,3286833.61 719491.34,3286833.61 719510.27,3286831.70 719510.27,3286831.70 719525.39,3286830.01 719525.39,3286830.01 719539.28,3286828.38 719539.28,3286828.38 719556.41,3286826.27 719556.41,3286826.27 719572.30,3286824.15 719572.30,3286824.15 719587.12,3286822.11 719587.12,3286822.11 719602.23,3286820.06 719602.23,3286820.06 719615.94,3286818.19 719615.94,3286818.19 719629.06,3286816.37 719629.06,3286816.37 719643.88,3286814.39 719643.88,3286814.39 719659.31,3286812.30 719659.31,3286812.30 719672.43,3286810.48 719672.43,3286810.48 719687.87,3286808.40 719687.87,3286808.40 719702.46,3286806.41 719702.46,3286806.41 719740.41,3286801.20 719740.41,3286801.20 719784.90,3286795.15 719784.90,3286795.15 719808.52,3286791.96 719808.52,3286791.96 719825.87,3286789.62 719825.87,3286789.62 719865.59,3286784.18 719865.59,3286784.18 719905.33,3286778.80 719905.33,3286778.80 719933.18,3286775.00 719933.18,3286775.00 719963.78,3286770.83 719963.78,3286770.83 719990.96,3286767.14 719990.96,3286767.14 720018.90,3286763.31 720018.90,3286763.31 720047.50,3286759.41 720047.50,3286759.41 720072.33,3286756.07 720072.33,3286756.07 720095.93,3286752.86 720095.93,3286752.86 720121.96,3286749.25 720121.96,3286749.25 720148.43,3286745.68 720148.43,3286745.68 720177.36,3286741.69 720177.36,3286741.69 720199.47,3286738.69 720199.47,3286738.69 720218.14,3286736.16 720218.14,3286736.16 720237.67,3286733.53 720237.67,3286733.53 720257.21,3286730.88 720257.21,3286730.88 720277.78,3286728.07 720277.78,3286728.07 720299.27,3286725.18 720299.27,3286725.18 720321.30,3286722.18 720321.30,3286722.18 720342.73,3286719.24 720342.73,3286719.24 720367.57,3286715.82 720367.57,3286715.82 720390.53,3286712.62 720390.53,3286712.62 720413.03,3286709.56 720413.03,3286709.56 720432.88,3286706.84 720432.88,3286706.84 720455.91,3286703.69 720455.91,3286703.69 720478.69,3286700.61 720478.69,3286700.61 720498.34,3286697.91 720498.34,3286697.91 720522.70,3286694.63 720522.70,3286694.63 720546.49,3286691.38 720546.49,3286691.38 720566.28,3286688.70 720566.28,3286688.70 720586.76,3286685.92 720586.76,3286685.92 720613.80,3286682.22 720613.80,3286682.22 720639.66,3286678.70 720639.66,3286678.70 720666.29,3286675.06 720666.29,3286675.06 720692.31,3286671.56 720692.31,3286671.56 720711.89,3286668.92 720711.89,3286668.92 720729.66,3286666.48 720729.66,3286666.48 720746.96,3286664.13 720746.96,3286664.13 720773.31,3286660.55 720773.31,3286660.55 720803.36,3286656.47 720803.36,3286656.47 720834.24,3286652.26 720834.24,3286652.26 720864.81,3286648.12 720864.81,3286648.12 720894.48,3286644.13 720894.48,3286644.13 720924.68,3286640.01 720924.68,3286640.01 720954.50,3286635.97 720954.50,3286635.97 720991.12,3286630.97 720991.12,3286630.97 721028.84,3286625.83 721028.84,3286625.83 721065.16,3286620.83 721065.16,3286620.83 721099.47,3286616.10 721099.47,3286616.10 721132.55,3286611.55 721132.55,3286611.55 721168.84,3286606.60 721168.84,3286606.60 721202.46,3286602.03 721202.46,3286602.03 721232.54,3286597.95 721232.54,3286597.95 721259.83,3286594.24 721259.83,3286594.24 721289.42,3286590.23 721289.42,3286590.23 721319.10,3286586.16 721319.10,3286586.16 721345.86,3286582.51 721345.86,3286582.51 721371.76,3286579.00 721371.76,3286579.00 721399.76,3286575.24 721399.76,3286575.24 721421.50,3286572.27 721421.50,3286572.27 721441.44,3286569.54 721441.44,3286569.54 721462.53,3286566.67 721462.53,3286566.67 721485.82,3286563.48 721485.82,3286563.48 721511.22,3286560.07 721511.22,3286560.07 721537.13,3286556.53 721537.13,3286556.53 721561.71,3286553.19 721561.71,3286553.19 721593.16,3286548.90 721593.16,3286548.90 721616.24,3286545.74 721616.24,3286545.74 721642.48,3286542.17 721642.48,3286542.17 721671.27,3286538.27 721671.27,3286538.27 721698.19,3286534.59 721698.19,3286534.59 721723.53,3286531.16 721723.53,3286531.16 721751.00,3286527.42 721751.00,3286527.42 721777.21,3286523.84 721777.21,3286523.84 721790.84,3286522.03 721790.84,3286522.03 721809.02,3286519.52 721809.02,3286519.52 721836.08,3286515.87 721836.08,3286515.87 721862.46,3286512.31 721862.46,3286512.31 721888.46,3286508.77 721888.46,3286508.77 721916.40,3286504.99 721916.40,3286504.99 721943.27,3286501.38 721943.27,3286501.38 721967.74,3286498.04 721967.74,3286498.04 721990.05,3286494.96 721990.05,3286494.96 722009.58,3286492.28 722009.58,3286492.28 722032.15,3286489.22 722032.15,3286489.22 722055.49,3286486.07 722055.49,3286486.07 722078.81,3286482.93 722078.81,3286482.93 722100.50,3286480.04 722100.50,3286480.04 722122.17,3286477.20 722122.17,3286477.20 722141.92,3286474.61 722141.92,3286474.61 722161.37,3286472.01 722161.37,3286472.01 722185.15,3286468.82 722185.15,3286468.82 722206.18,3286466.14 722206.18,3286466.14 722224.80,3286464.08 722224.80,3286464.08 722244.88,3286462.21 722244.88,3286462.21 722264.55,3286460.54 722264.55,3286460.54 722281.26,3286459.29 722281.26,3286459.29 722302.40,3286457.91 722302.40,3286457.91 722320.48,3286456.95 722320.48,3286456.95 722339.12,3286456.16 722339.12,3286456.16 722357.82,3286455.56 722357.82,3286455.56 722375.34,3286455.26 722375.34,3286455.26 722394.09,3286455.08 722394.09,3286455.08 722411.85,3286455.10 722411.85,3286455.10 722429.48,3286455.26 722429.48,3286455.26 722441.45,3286455.50 722441.45,3286455.50 722457.29,3286455.88 722457.29,3286455.88 722476.74,3286456.60 722476.74,3286456.60 722491.94,3286457.35 722491.94,3286457.35 722505.94,3286458.05 722505.94,3286458.05 722518.67,3286458.84 722518.67,3286458.84 722532.16,3286459.67 722532.16,3286459.67 722546.29,3286460.68 722546.29,3286460.68 722554.44,3286461.33 722554.44,3286461.33 722560.45,3286461.80 722560.45,3286461.80 722574.07,3286462.97 722574.07,3286462.97 722586.35,3286464.03 722586.35,3286464.03 722601.98,3286465.43 722601.98,3286465.43 722618.24,3286466.86 722618.24,3286466.86 722635.25,3286468.39 722635.25,3286468.39 722655.04,3286470.09 722655.04,3286470.09 722672.36,3286471.61 722672.36,3286471.61 722690.37,3286473.23 722690.37,3286473.23 722707.80,3286474.80 722707.80,3286474.80 722727.56,3286476.59 722727.56,3286476.59 722745.70,3286478.25 722745.70,3286478.25 722763.06,3286479.85 722763.06,3286479.85 722781.86,3286481.55 722781.86,3286481.55 722798.55,3286483.06 722798.55,3286483.06 722814.56,3286484.52 722814.56,3286484.52 722826.17,3286485.55 722826.17,3286485.55 722839.85,3286486.83 722839.85,3286486.83 722851.38,3286487.88 722851.38,3286487.88 722864.65,3286489.13 722864.65,3286489.13 722880.82,3286490.60 722880.82,3286490.60 722897.68,3286492.12 722897.68,3286492.12 722916.16,3286493.82 722916.16,3286493.82 722931.15,3286495.20 722931.15,3286495.20 722947.32,3286496.66 722947.32,3286496.66 722966.74,3286498.46 722966.74,3286498.46 722986.13,3286500.19 722986.13,3286500.19 722999.15,3286501.36 722999.15,3286501.36 723015.48,3286502.85 723015.48,3286502.85 723032.54,3286504.36 723032.54,3286504.36 723047.65,3286505.75 723047.65,3286505.75 723062.08,3286507.05 723062.08,3286507.05 723079.39,3286508.60 723079.39,3286508.60 723094.12,3286509.94 723094.12,3286509.94 723109.73,3286511.31 723109.73,3286511.31 723124.52,3286512.67 723124.52,3286512.67 723138.89,3286513.98 723138.89,3286513.98 723151.06,3286515.11 723151.06,3286515.11 723174.92,3286517.31 723174.92,3286517.31 723198.23,3286519.42 723198.23,3286519.42 723221.61,3286521.58 723221.61,3286521.58 723242.25,3286523.47 723242.25,3286523.47 723262.01,3286525.25 723262.01,3286525.25 723284.32,3286527.30 723284.32,3286527.30 723305.29,3286529.22 723305.29,3286529.22 723328.17,3286531.27 723328.17,3286531.27 723345.28,3286532.85 723345.28,3286532.85 723364.86,3286534.63 723364.86,3286534.63 723383.22,3286536.30 723383.22,3286536.30 723399.50,3286537.75 723399.50,3286537.75 723414.78,3286539.14 723414.78,3286539.14 723428.08,3286540.36 723428.08,3286540.36 723443.28,3286541.72 723443.28,3286541.72 723457.45,3286542.97 723457.45,3286542.97 723470.85,3286544.18 723470.85,3286544.18 723484.70,3286545.42 723484.70,3286545.42 723499.94,3286546.81 723499.94,3286546.81 723511.67,3286547.84 723511.67,3286547.84 723526.24,3286549.18 723526.24,3286549.18 723541.48,3286550.56 723541.48,3286550.56 723558.04,3286552.08 723558.04,3286552.08 723571.87,3286553.34 723571.87,3286553.34 723585.08,3286554.54 723585.08,3286554.54 723598.37,3286555.75 723598.37,3286555.75 723612.35,3286557.01 723612.35,3286557.01 723624.33,3286558.12 723624.33,3286558.12 723633.96,3286558.95 723633.96,3286558.95 723645.68,3286560.08 723645.68,3286560.08 723663.20,3286561.67 723663.20,3286561.67 723680.10,3286563.22 723680.10,3286563.22 723696.35,3286564.73 723696.35,3286564.73 723711.48,3286566.07 723711.48,3286566.07 723726.24,3286567.45 723726.24,3286567.45 723741.72,3286568.87 723741.72,3286568.87 723757.57,3286570.30 723757.57,3286570.30 723768.90,3286571.34 723768.90,3286571.34 723780.32,3286572.41 723780.32,3286572.41 723792.01,3286573.48 723792.01,3286573.48 723806.60,3286574.82 723806.60,3286574.82 723823.30,3286576.34 723823.30,3286576.34 723837.81,3286577.67 723837.81,3286577.67 723851.81,3286578.92 723851.81,3286578.92 723869.20,3286580.53 723869.20,3286580.53 723883.32,3286581.83 723883.32,3286581.83 723898.79,3286583.24 723898.79,3286583.24 723916.41,3286584.84 723916.41,3286584.84 723934.77,3286586.54 723934.77,3286586.54 723950.25,3286587.92 723950.25,3286587.92 723967.18,3286589.49 723967.18,3286589.49 723984.24,3286591.07 723984.24,3286591.07 723996.00,3286592.11 723996.00,3286592.11 724009.03,3286593.30 724009.03,3286593.30 724026.62,3286594.95 724026.62,3286594.95 724042.72,3286596.45 724042.72,3286596.45 724056.16,3286597.69 724056.16,3286597.69 724079.35,3286599.79 724079.35,3286599.79 724096.99,3286601.38 724096.99,3286601.38 724115.70,3286603.12 724115.70,3286603.12 724131.91,3286604.61 724131.91,3286604.61 724146.55,3286605.92 724146.55,3286605.92 724163.23,3286607.43 724163.23,3286607.43 724179.82,3286608.94 724179.82,3286608.94 724196.71,3286610.47 724196.71,3286610.47 724212.45,3286611.90 724212.45,3286611.90 724228.79,3286613.38 724228.79,3286613.38 724246.83,3286615.02 724246.83,3286615.02 724264.52,3286616.61 724264.52,3286616.61 724281.81,3286618.19 724281.81,3286618.19 724297.82,3286619.64 724297.82,3286619.64 724312.44,3286620.92 724312.44,3286620.92 724326.58,3286622.22 724326.58,3286622.22 724340.16,3286623.46 724340.16,3286623.46 724360.65,3286625.35 724360.65,3286625.35 724376.60,3286626.81 724376.60,3286626.81 724391.10,3286628.15 724391.10,3286628.15 724405.89,3286629.47 724405.89,3286629.47 724419.07,3286630.69 724419.07,3286630.69 724432.31,3286631.90 724432.31,3286631.90 724449.14,3286633.45 724449.14,3286633.45 724466.79,3286635.06 724466.79,3286635.06 724484.21,3286636.64 724484.21,3286636.64 724501.00,3286638.18 724501.00,3286638.18 724518.18,3286639.72 724518.18,3286639.72 724534.80,3286641.22 724534.80,3286641.22 724552.48,3286642.80 724552.48,3286642.80 724569.89,3286644.39 724569.89,3286644.39 724587.49,3286646.00 724587.49,3286646.00 724604.82,3286647.55 724604.82,3286647.55 724622.20,3286649.12 724622.20,3286649.12 724638.39,3286650.58 724638.39,3286650.58 724644.63,3286651.14 724644.63,3286651.14 724662.25,3286652.71 724662.25,3286652.71 724691.06,3286655.32 724691.06,3286655.32 724720.48,3286657.98 724720.48,3286657.98 724744.68,3286660.24 724744.68,3286660.24 724765.00,3286662.06 724765.00,3286662.06 724782.69,3286663.65 724782.69,3286663.65 724803.30,3286665.53 724803.30,3286665.53 724821.69,3286667.23 724821.69,3286667.23 724840.43,3286668.92 724840.43,3286668.92 724862.13,3286670.90 724862.13,3286670.90 724883.13,3286672.85 724883.13,3286672.85 724905.48,3286674.91 724905.48,3286674.91 724922.61,3286676.47 724922.61,3286676.47 724939.53,3286678.02 724939.53,3286678.02 724954.29,3286679.36 724954.29,3286679.36 724971.50,3286680.95 724971.50,3286680.95 724985.16,3286682.16 724985.16,3286682.16 724999.31,3286683.48 724999.31,3286683.48 725013.14,3286684.75 725013.14,3286684.75 725026.25,3286685.94 725026.25,3286685.94 725041.66,3286687.33 725041.66,3286687.33 725057.46,3286688.77 725057.46,3286688.77 725073.82,3286690.28 725073.82,3286690.28 725087.83,3286691.53 725087.83,3286691.53 725105.00,3286693.06 725105.00,3286693.06 725119.35,3286694.37 725119.35,3286694.37 725137.10,3286696.01 725137.10,3286696.01 725149.05,3286697.10 725149.05,3286697.10 725160.36,3286698.11 725160.36,3286698.11 725171.96,3286699.16 725171.96,3286699.16 725182.83,3286700.14 725182.83,3286700.14 725195.95,3286701.36 725195.95,3286701.36 725204.90,3286702.14 725204.90,3286702.14 725217.65,3286703.30 725217.65,3286703.30 725230.35,3286704.50 725230.35,3286704.50 725242.13,3286705.56 725242.13,3286705.56 725252.71,3286706.48 725252.71,3286706.48 725265.15,3286707.62 725265.15,3286707.62 725284.16,3286709.37 725284.16,3286709.37 725309.04,3286711.66 725309.04,3286711.66 725322.23,3286712.84 725322.23,3286712.84 725343.51,3286714.78 725343.51,3286714.78 725361.48,3286716.41 725361.48,3286716.41 725383.11,3286718.36 725383.11,3286718.36 725415.78,3286721.28 725415.78,3286721.28 725441.69,3286723.58 725441.69,3286723.58 725463.94,3286725.65 725463.94,3286725.65 725493.96,3286728.42 725493.96,3286728.42 725513.67,3286730.17 725513.67,3286730.17 725530.98,3286731.76 725530.98,3286731.76 725542.75,3286732.84 725542.75,3286732.84 725556.07,3286734.04 725556.07,3286734.04 725572.09,3286735.48 725572.09,3286735.48 725584.96,3286736.68 725584.96,3286736.68 725595.41,3286737.61 725595.41,3286737.61 725607.37,3286738.67 725607.37,3286738.67 725618.90,3286739.69 725618.90,3286739.69 725628.75,3286740.61 725628.75,3286740.61 725636.81,3286741.33 725636.81,3286741.33 725648.62,3286742.43 725648.62,3286742.43 725660.61,3286743.52 725660.61,3286743.52 725669.66,3286744.36 725669.66,3286744.36 725679.84,3286745.28 725679.84,3286745.28 725688.22,3286746.03 725688.22,3286746.03 725703.83,3286747.49 725703.83,3286747.49 725721.13,3286749.07 725721.13,3286749.07 725739.55,3286750.73 725739.55,3286750.73 725758.54,3286752.48 725758.54,3286752.48 725777.16,3286754.12 725777.16,3286754.12 725794.30,3286755.69 725794.30,3286755.69 725810.81,3286757.16 725810.81,3286757.16 725824.00,3286758.38 725824.00,3286758.38 725838.99,3286759.71 725838.99,3286759.71 725857.11,3286761.34 725857.11,3286761.34 725875.69,3286763.05 725875.69,3286763.05 725893.17,3286764.60 725893.17,3286764.60 725910.79,3286766.20 725910.79,3286766.20 725930.02,3286767.96 725930.02,3286767.96 725945.95,3286769.40 725945.95,3286769.40 725962.65,3286770.92 725962.65,3286770.92 725978.75,3286772.38 725978.75,3286772.38 725992.80,3286773.67 725992.80,3286773.67 726012.24,3286775.45 726012.24,3286775.45 726030.23,3286777.10 726030.23,3286777.10 726046.59,3286778.58 726046.59,3286778.58 726062.12,3286779.99 726062.12,3286779.99 726082.26,3286781.84 726082.26,3286781.84 726102.67,3286783.67 726102.67,3286783.67 726118.38,3286785.12 726118.38,3286785.12 726133.33,3286786.50 726133.33,3286786.50 726147.94,3286787.80 726147.94,3286787.80 726162.01,3286789.08 726162.01,3286789.08 726172.89,3286790.06 726172.89,3286790.06 726184.97,3286791.17 726184.97,3286791.17 726195.72,3286792.14 726195.72,3286792.14 726206.55,3286793.11 726206.55,3286793.11 726218.52,3286794.21 726218.52,3286794.21 726231.03,3286795.33 726231.03,3286795.33 726243.61,3286796.46 726243.61,3286796.46 726256.49,3286797.65 726256.49,3286797.65 726270.08,3286798.89 726270.08,3286798.89 726285.57,3286800.33 726285.57,3286800.33 726296.59,3286801.34 726296.59,3286801.34 726308.02,3286802.40 726308.02,3286802.40 726321.85,3286803.68 726321.85,3286803.68 726334.65,3286804.85 726334.65,3286804.85 726348.76,3286806.17 726348.76,3286806.17 726362.62,3286807.43 726362.62,3286807.43 726375.57,3286808.64 726375.57,3286808.64 726386.34,3286809.62 726386.34,3286809.62 726395.78,3286810.49 726395.78,3286810.49 726411.31,3286811.92 726411.31,3286811.92 726428.13,3286813.46 726428.13,3286813.46 726444.04,3286814.90 726444.04,3286814.90 726455.29,3286815.94 726455.29,3286815.94 726469.06,3286817.23 726469.06,3286817.23 726481.44,3286818.38 726481.44,3286818.38 726496.50,3286819.73 726496.50,3286819.73 726508.01,3286820.77 726508.01,3286820.77 726518.52,3286821.73 726518.52,3286821.73 726527.33,3286822.56 726527.33,3286822.56 726534.63,3286823.22 726534.63,3286823.22 726544.70,3286824.13 726544.70,3286824.13 726557.47,3286825.33 726557.47,3286825.33 726570.95,3286826.54 726570.95,3286826.54 726582.15,3286827.55 726582.15,3286827.55 726597.83,3286828.96 726597.83,3286828.96 726607.39,3286829.87 726607.39,3286829.87 726625.72,3286831.55 726625.72,3286831.55 726639.10,3286832.78 726639.10,3286832.78 726651.51,3286833.94 726651.51,3286833.94 726668.86,3286835.54 726668.86,3286835.54 726686.71,3286837.17 726686.71,3286837.17 726701.96,3286838.58 726701.96,3286838.58 726717.85,3286840.04 726717.85,3286840.04 726729.54,3286841.14 726729.54,3286841.14 726741.76,3286842.26 726741.76,3286842.26 726753.96,3286843.38 726753.96,3286843.38 726767.13,3286844.57 726767.13,3286844.57 726782.65,3286846.01 726782.65,3286846.01 726795.70,3286847.21 726795.70,3286847.21 726806.69,3286848.20 726806.69,3286848.20 726823.68,3286849.77 726823.68,3286849.77 726838.11,3286851.08 726838.11,3286851.08 726851.62,3286852.33 726851.62,3286852.33 726865.07,3286853.54 726865.07,3286853.54 726878.30,3286854.77 726878.30,3286854.77 726895.72,3286856.36 726895.72,3286856.36 726909.09,3286857.59 726909.09,3286857.59 726921.84,3286858.76 726921.84,3286858.76 726934.31,3286859.89 726934.31,3286859.89 726945.69,3286860.92 726945.69,3286860.92 726957.21,3286861.99 726957.21,3286861.99 726963.55,3286862.55 726963.55,3286862.55 726979.87,3286864.07 726979.87,3286864.07 726995.19,3286865.43 726995.19,3286865.43 727006.68,3286866.49 727006.68,3286866.49 727020.73,3286867.77 727020.73,3286867.77 727034.42,3286869.02 727034.42,3286869.02 727049.81,3286870.40 727049.81,3286870.40 727063.56,3286871.65 727063.56,3286871.65 727076.01,3286872.78 727076.01,3286872.78 727095.01,3286874.51 727095.01,3286874.51 727112.48,3286876.07 727112.48,3286876.07 727129.64,3286877.65 727129.64,3286877.65 727148.34,3286879.34 727148.34,3286879.34 727158.12,3286880.23">
        <lane index="0" width="3.66" type="shoulder" disallow="all" />
        <lane index="1" width="3.66" />
        <lane index="2" width="3.66" />
    </edge>
    <edge id="558.0" from="node_558_start" to="junction_34" numLanes="1" speed="13.89" type="town" shape="727620.67,3286873.02 727629.59,3286877.85 727629.59,3286877.85 727648.40,3286885.70 727648.40,3286885.70 727673.80,3286896.22 727673.80,3286896.22 727695.71,3286903.85 727695.71,3286903.85 727714.91,3286909.51 727714.91,3286909.51 727726.57,3286912.35 727726.57,3286912.35 727737.46,3286915.11 727737.46,3286915.11 727747.48,3286917.43 727747.48,3286917.43 727764.84,3286921.20 727764.84,3286921.20 727781.19,3286924.39 727781.19,3286924.39 727788.30,3286925.75 727788.30,3286925.75 727796.86,3286927.26 727796.86,3286927.26 727808.57,3286929.16 727808.57,3286929.16 727818.95,3286930.68 727818.95,3286930.68 727828.64,3286931.99 727828.64,3286931.99 727839.86,3286933.48 727839.86,3286933.48 727851.74,3286935.00 727851.74,3286935.00 727863.62,3286936.48 727863.62,3286936.48 727878.83,3286938.21 727878.83,3286938.21 727892.60,3286939.72">
        <lane index="0" width="3.66" />
    </edge>