<?xml version='1.0' encoding='utf-8'?>
<connections>
    <connection from="831.0" to="251.0" fromLane="1" toLane="1" />
    <connection from="831.0" to="251.0" fromLane="0" toLane="0" />
    <connection from="831.0" to="253.0" fromLane="2" toLane="1" />
    <connection from="831.0" to="253.0" fromLane="1" toLane="0" />
    <connection from="243.0" to="247.0" fromLane="1" toLane="2" />
    <connection from="243.0" to="247.0" fromLane="2" toLane="3" />
    <connection from="224.0" to="merge_zone_54" fromLane="0" toLane="1" />
    <connection from="224.0" to="merge_zone_54" fromLane="1" toLane="2" />
    <connection from="merge_zone_54" to="951.0" fromLane="1" toLane="1" />
    <connection from="merge_zone_54" to="951.0" fromLane="2" toLane="2" />
    <connection from="231.0" to="merge_zone_54" fromLane="0" toLane="0" />
    <connection from="merge_zone_54" to="951.0" fromLane="0" toLane="2" dir="r" state="m" />
    <connection from="219.0" to="229.0" fromLane="0" toLane="0" />
    <connection from="219.0" to="230.0" fromLane="1" toLane="1" />
    <connection from="219.0" to="230.0" fromLane="0" toLane="0" />
</connections>