<?xml version="1.0" encoding="UTF-8"?>

<!-- generated on 2025-10-19 17:35:16 by Eclipse SUMO netconvert Version 1.23.1
<netconvertConfiguration xmlns:xsi="http://www.w3.org/2001/XMLSchema-instance" xsi:noNamespaceSchemaLocation="http://sumo.dlr.de/xsd/netconvertConfiguration.xsd">

    <input>
        <node-files value="/home/sdai/harry/TeraSim/jupiter/eb/jupiter_eb_tiles/tile_0027/tile_0027.nod.xml"/>
        <edge-files value="/home/sdai/harry/TeraSim/jupiter/eb/jupiter_eb_tiles/tile_0027/tile_0027.edg.xml"/>
        <connection-files value="/home/sdai/harry/TeraSim/jupiter/eb/jupiter_eb_tiles/tile_0027/tile_0027.con.xml"/>
    </input>

    <output>
        <output-file value="/home/sdai/harry/TeraSim/jupiter/eb/jupiter_eb_tiles/tile_0027/tile_0027.net.xml"/>
        <output.street-names value="true"/>
        <output.original-names value="true"/>
    </output>

    <processing>
        <geometry.remove value="false"/>
        <geometry.min-dist value="0.5"/>
        <edges.join value="false"/>
    </processing>

    <junctions>
        <no-internal-links value="false"/>
        <no-turnarounds value="true"/>
        <junctions.join value="true"/>
        <junctions.join-dist value="10"/>
        <junctions.corner-detail value="5"/>
        <junctions.internal-link-detail value="5"/>
        <junctions.limit-turn-speed value="5.5"/>
        <rectangular-lane-cut value="true"/>
        <check-lane-foes.all value="true"/>
    </junctions>

</netconvertConfiguration>
-->

<net version="1.20" junctionCornerDetail="5" junctionLinkDetail="5" rectangularLaneCut="true" limitTurnSpeed="5.50" checkLaneFoesAll="1" xmlns:xsi="http://www.w3.org/2001/XMLSchema-instance" xsi:noNamespaceSchemaLocation="http://sumo.dlr.de/xsd/net_file.xsd">

    <location netOffset="-603937.49,-3274817.76" convBoundary="0.00,0.00,8607.38,1838.59" origBoundary="0.00,0.00,612544.87,3276656.35" projParameter="!"/>

    <edge id=":j_merge_end_54_0" function="internal">
        <lane id=":j_merge_end_54_0_0" index="0" speed="13.89" length="49.63" width="3.66" shape="1355.25,150.50 1366.47,154.73 1378.13,160.50 1389.78,166.32 1400.97,170.65"/>
        <lane id=":j_merge_end_54_0_1" index="1" speed="13.89" length="49.63" width="3.66" shape="1354.29,154.03 1401.98,167.13"/>
        <lane id=":j_merge_end_54_0_2" index="2" speed="13.89" length="49.63" width="3.66" shape="1353.33,157.56 1400.97,170.65"/>
    </edge>
    <edge id=":j_merge_start_54_0" function="internal">
        <lane id=":j_merge_start_54_0_0" index="0" speed="13.89" length="50.13" width="3.66" shape="1088.41,86.45 1137.54,96.74"/>
        <lane id=":j_merge_start_54_0_1" index="1" speed="13.89" length="50.13" width="3.66" shape="1087.71,90.04 1136.71,100.31"/>
    </edge>
    <edge id=":j_merge_start_54_2" function="internal">
        <lane id=":j_merge_start_54_2_0" index="0" speed="13.89" length="50.32" width="3.66" shape="1089.17,82.59 1138.36,93.18"/>
    </edge>
    <edge id=":junction_105_0" function="internal">
        <lane id=":junction_105_0_0" index="0" speed="13.89" length="147.31" width="3.66" shape="3841.43,831.48 3984.42,866.67"/>
        <lane id=":junction_105_0_1" index="1" speed="13.89" length="147.31" width="3.66" shape="3840.47,835.01 3983.55,870.22"/>
    </edge>
    <edge id=":junction_105_2" function="internal">
        <lane id=":junction_105_2_0" index="0" speed="13.89" length="147.56" width="3.66" shape="3840.47,835.01 3982.82,873.87"/>
        <lane id=":junction_105_2_1" index="1" speed="13.89" length="147.56" width="3.66" shape="3839.50,838.55 3981.86,877.40"/>
    </edge>
    <edge id=":junction_18_0" function="internal">
        <lane id=":junction_18_0_0" index="0" speed="13.89" length="143.78" width="3.66" shape="5888.33,1395.51 6026.99,1433.50"/>
        <lane id=":junction_18_0_1" index="1" speed="13.89" length="143.78" width="3.66" shape="5887.36,1399.04 6026.03,1437.04"/>
    </edge>
    <edge id=":junction_73_0" function="internal">
        <lane id=":junction_73_0_0" index="0" speed="13.89" length="69.57" width="3.66" shape="297.77,47.84 312.14,47.41 334.39,46.35 355.70,45.20 367.25,44.50"/>
    </edge>
    <edge id=":junction_73_1" function="internal">
        <lane id=":junction_73_1_0" index="0" speed="13.89" length="69.63" width="3.66" shape="297.77,47.84 367.39,48.51"/>
        <lane id=":junction_73_1_1" index="1" speed="13.89" length="69.63" width="3.66" shape="297.74,51.50 367.36,52.17"/>
    </edge>
    <edge id=":node_217_end_0" function="internal">
        <lane id=":node_217_end_0_0" index="0" speed="13.89" length="8.00" width="3.66" shape="966.23,66.64 974.17,67.65"/>
        <lane id=":node_217_end_0_1" index="1" speed="13.89" length="8.00" width="3.66" shape="965.77,70.27 973.71,71.28"/>
    </edge>
    <edge id=":node_217_start_0" function="internal">
        <lane id=":node_217_start_0_0" index="0" speed="13.89" length="8.35" width="3.66" shape="436.16,49.26 438.66,48.71 440.18,47.47 441.70,46.23 444.20,45.68"/>
        <lane id=":node_217_start_0_1" index="1" speed="13.89" length="8.35" width="3.66" shape="436.16,49.26 444.16,49.34"/>
        <lane id=":node_217_start_0_2" index="2" speed="13.89" length="8.35" width="3.66" shape="436.13,52.92 444.13,53.00"/>
    </edge>
    <edge id=":node_229_end_0" function="internal">
        <lane id=":node_229_end_0_0" index="0" speed="13.89" length="0.24" width="3.66" shape="439.50,37.06 439.74,37.02"/>
    </edge>
    <edge id=":node_236_end_0" function="internal">
        <lane id=":node_236_end_0_0" index="0" speed="13.89" length="0.30" width="3.66" shape="4377.49,982.06 4377.78,982.14"/>
        <lane id=":node_236_end_0_1" index="1" speed="13.89" length="0.30" width="3.66" shape="4376.51,985.59 4376.80,985.67"/>
    </edge>
    <edge id=":node_236_start_0" function="internal">
        <lane id=":node_236_start_0_0" index="0" speed="13.89" length="3.00" width="3.66" shape="4075.69,899.23 4078.59,900.02"/>
        <lane id=":node_236_start_0_1" index="1" speed="13.89" length="3.00" width="3.66" shape="4074.73,902.76 4077.62,903.55"/>
    </edge>
    <edge id=":node_240_start_0" function="internal">
        <lane id=":node_240_start_0_0" index="0" speed="13.89" length="0.30" width="3.66" shape="4108.25,891.72 4108.54,891.77"/>
        <lane id=":node_240_start_0_1" index="1" speed="13.89" length="0.30" width="3.66" shape="4107.64,895.33 4107.94,895.38"/>
    </edge>
    <edge id=":node_241_end_0" function="internal">
        <lane id=":node_241_end_0_0" index="0" speed="13.89" length="8.06" width="3.66" shape="6583.77,1586.29 6591.52,1588.50"/>
    </edge>
    <edge id=":node_241_end_1" function="internal">
        <lane id=":node_241_end_1_0" index="0" speed="13.89" length="8.01" width="3.66" shape="6583.80,1586.39 6591.52,1588.50"/>
        <lane id=":node_241_end_1_1" index="1" speed="13.89" length="8.01" width="3.66" shape="6582.83,1589.92 6590.56,1592.03"/>
    </edge>
    <edge id=":node_241_start_0" function="internal">
        <lane id=":node_241_start_0_0" index="0" speed="13.89" length="3.26" width="3.66" shape="6453.71,1546.73 6456.86,1547.53"/>
    </edge>
    <edge id=":node_241_start_1" function="internal">
        <lane id=":node_241_start_1_0" index="0" speed="13.89" length="3.00" width="3.66" shape="6452.73,1550.26 6455.63,1551.05"/>
        <lane id=":node_241_start_1_1" index="1" speed="13.89" length="3.00" width="3.66" shape="6451.76,1553.78 6454.66,1554.58"/>
    </edge>
    <edge id=":node_242_end_0" function="internal">
        <lane id=":node_242_end_0_0" index="0" speed="13.89" length="0.30" width="3.66" shape="7933.67,1819.99 7933.97,1819.99"/>
        <lane id=":node_242_end_0_1" index="1" speed="13.89" length="0.30" width="3.66" shape="7933.60,1823.65 7933.91,1823.65"/>
    </edge>
    <edge id=":node_242_start_0" function="internal">
        <lane id=":node_242_start_0_0" index="0" speed="13.89" length="0.10" width="3.66" shape="7798.37,1817.27 7798.37,1817.27"/>
        <lane id=":node_242_start_0_1" index="1" speed="13.89" length="0.10" width="3.66" shape="7798.30,1820.93 7798.30,1820.93"/>
    </edge>
    <edge id=":node_243_start_0" function="internal">
        <lane id=":node_243_start_0_0" index="0" speed="13.89" length="0.10" width="3.66" shape="5489.87,1286.35 5489.87,1286.35"/>
        <lane id=":node_243_start_0_1" index="1" speed="13.89" length="0.10" width="3.66" shape="5488.92,1289.88 5488.92,1289.88"/>
    </edge>
    <edge id=":node_244_end_0" function="internal">
        <lane id=":node_244_end_0_0" index="0" speed="13.89" length="0.10" width="3.66" shape="5327.57,1242.02 5327.57,1242.02"/>
        <lane id=":node_244_end_0_1" index="1" speed="13.89" length="0.10" width="3.66" shape="5326.61,1245.56 5326.61,1245.56"/>
    </edge>
    <edge id=":node_244_start_0" function="internal">
        <lane id=":node_244_start_0_0" index="0" speed="13.89" length="0.30" width="3.66" shape="4561.63,1032.49 4561.92,1032.57"/>
        <lane id=":node_244_start_0_1" index="1" speed="13.89" length="0.30" width="3.66" shape="4560.66,1036.02 4560.95,1036.10"/>
    </edge>
    <edge id=":node_247_end_0" function="internal">
        <lane id=":node_247_end_0_0" index="0" speed="13.89" length="0.30" width="3.66" shape="6116.28,1454.18 6116.58,1454.26"/>
        <lane id=":node_247_end_0_1" index="1" speed="13.89" length="0.30" width="3.66" shape="6115.32,1457.72 6115.61,1457.79"/>
        <lane id=":node_247_end_0_2" index="2" speed="13.89" length="0.30" width="3.66" shape="6114.36,1461.25 6114.65,1461.32"/>
    </edge>
    <edge id=":node_252_start_0" function="internal">
        <lane id=":node_252_start_0_0" index="0" speed="13.89" length="0.30" width="3.66" shape="6266.14,1495.26 6266.42,1495.34"/>
        <lane id=":node_252_start_0_1" index="1" speed="13.89" length="0.30" width="3.66" shape="6265.17,1498.79 6265.46,1498.87"/>
        <lane id=":node_252_start_0_2" index="2" speed="13.89" length="0.30" width="3.66" shape="6264.20,1502.32 6264.49,1502.40"/>
    </edge>
    <edge id=":node_264_end_0" function="internal">
        <lane id=":node_264_end_0_0" index="0" speed="13.89" length="4.85" width="3.66" shape="3447.64,727.46 3451.68,724.78"/>
        <lane id=":node_264_end_0_1" index="1" speed="13.89" length="4.85" width="3.66" shape="3446.67,730.99 3450.70,728.30"/>
    </edge>
    <edge id=":node_264_end_2" function="internal">
        <lane id=":node_264_end_2_0" index="0" speed="13.89" length="7.77" width="3.66" shape="3448.64,724.13 3449.73,731.83"/>
    </edge>
    <edge id=":node_264_start_0" function="internal">
        <lane id=":node_264_start_0_0" index="0" speed="13.89" length="7.89" width="3.66" shape="3363.11,704.30 3370.77,706.22"/>
    </edge>
    <edge id=":node_264_start_1" function="internal">
        <lane id=":node_264_start_1_0" index="0" speed="13.89" length="8.13" width="3.66" shape="3363.11,704.30 3370.95,706.45"/>
        <lane id=":node_264_start_1_1" index="1" speed="13.89" length="8.13" width="3.66" shape="3362.14,707.83 3369.98,709.98"/>
    </edge>

    <edge id="217.0" from="node_217_start" to="node_217_end" priority="-1" type="town" shape="440.11,54.79 451.55,54.90 461.77,54.98 468.64,55.06 487.33,55.26 494.53,55.32 500.01,55.41 507.88,55.49 516.90,55.60 523.07,55.67 529.24,55.72 535.28,55.77 541.46,55.82 550.48,55.92 563.13,56.09 575.49,56.26 584.84,56.38 595.03,56.53 604.51,56.64 617.18,56.74 629.21,56.88 643.86,57.02 654.31,57.17 668.26,57.32 683.66,57.57 701.16,57.78 723.72,58.04 740.68,58.22 756.04,58.44 769.33,58.60 783.71,58.83 791.58,59.02 803.66,59.28 815.73,59.73 828.46,60.13 840.32,60.76 852.80,61.43 861.52,61.96 871.24,62.62 887.02,63.84 898.08,64.75 909.51,65.84 923.88,67.28 942.20,69.26 951.72,70.34 961.58,71.59 969.51,72.59">
        <lane id="217.0_0" index="0" speed="13.89" length="522.67" width="3.66" shape="444.20,45.68 451.63,45.75 461.86,45.83 468.74,45.91 487.42,46.11 494.64,46.17 500.13,46.26 507.98,46.34 517.01,46.45 523.16,46.52 529.31,46.57 535.35,46.62 541.55,46.67 550.59,46.77 563.25,46.94 575.61,47.11 584.97,47.23 595.15,47.38 604.60,47.49 617.27,47.59 629.31,47.73 643.97,47.87 654.42,48.02 668.38,48.17 683.79,48.42 701.27,48.63 723.82,48.89 740.79,49.07 756.16,49.29 769.46,49.45 783.88,49.68 791.79,49.87 803.93,50.13 816.04,50.59 828.85,50.99 840.81,51.62 853.32,52.30 862.11,52.83 871.90,53.49 887.74,54.72 898.89,55.64 910.40,56.73 924.83,58.18 943.20,60.17 952.81,61.26 962.73,62.51 966.69,63.01"/>
        <lane id="217.0_1" index="1" speed="13.89" length="522.67" width="3.66" shape="444.16,49.34 451.60,49.41 461.82,49.49 468.70,49.57 487.39,49.77 494.59,49.83 500.08,49.92 507.94,50.00 516.97,50.11 523.12,50.18 529.28,50.23 535.32,50.28 541.51,50.33 550.55,50.43 563.20,50.60 575.56,50.77 584.92,50.89 595.10,51.04 604.56,51.15 617.23,51.25 629.27,51.39 643.92,51.53 654.38,51.68 668.33,51.83 683.74,52.08 701.22,52.29 723.78,52.55 740.75,52.73 756.11,52.95 769.41,53.11 783.81,53.34 791.70,53.53 803.82,53.79 815.92,54.24 828.69,54.65 840.61,55.28 853.11,55.95 861.87,56.48 871.64,57.15 887.45,58.37 898.57,59.28 910.05,60.38 924.45,61.82 942.80,63.80 952.37,64.89 962.27,66.14 966.23,66.64"/>
        <lane id="217.0_2" index="2" speed="13.89" length="522.67" width="3.66" shape="444.13,53.00 451.57,53.07 461.79,53.15 468.66,53.23 487.35,53.43 494.55,53.49 500.03,53.58 507.90,53.66 516.92,53.77 523.09,53.84 529.25,53.89 535.29,53.94 541.48,53.99 550.50,54.09 563.15,54.26 575.51,54.43 584.87,54.55 595.05,54.70 604.53,54.81 617.20,54.91 629.23,55.05 643.88,55.19 654.33,55.34 668.28,55.49 683.69,55.74 701.18,55.95 723.74,56.21 740.70,56.39 756.06,56.61 769.36,56.77 783.74,57.00 791.62,57.19 803.71,57.45 815.79,57.90 828.54,58.30 840.42,58.93 852.90,59.60 861.64,60.13 871.37,60.80 887.16,62.02 898.24,62.93 909.69,64.02 924.07,65.46 942.40,67.44 951.94,68.52 961.81,69.78 965.77,70.27"/>
    </edge>
    <edge id="219.0" from="node_219_start" to="junction_73" priority="-1" type="town" shape="0.00,49.90 11.55,50.01 22.66,50.09 34.26,50.27 42.95,50.37 52.30,50.47 66.38,50.65 75.02,50.72 82.31,50.82 94.04,50.94 103.03,51.01 112.88,51.15 119.45,51.24 125.22,51.31 132.02,51.36 141.81,51.47 147.54,51.55 158.75,51.68 175.39,51.90 197.18,52.08 209.75,52.23 251.06,52.84 265.85,53.00 278.28,53.14 289.50,53.26 297.72,53.33">
        <lane id="219.0_0" index="0" speed="13.89" length="297.74" width="3.66" shape="0.05,44.41 11.60,44.52 22.72,44.60 34.34,44.78 43.01,44.88 52.37,44.98 66.44,45.16 75.08,45.23 82.37,45.33 94.09,45.45 103.09,45.52 112.96,45.66 119.52,45.75 125.27,45.82 132.07,45.87 141.88,45.98 147.61,46.06 158.82,46.19 175.45,46.41 197.23,46.59 209.82,46.74 251.14,47.35 265.91,47.51 278.34,47.65 289.55,47.77 297.77,47.84"/>
        <lane id="219.0_1" index="1" speed="13.89" length="297.74" width="3.66" shape="0.02,48.07 11.57,48.18 22.68,48.26 34.29,48.44 42.97,48.54 52.32,48.64 66.40,48.82 75.04,48.89 82.33,48.99 94.06,49.11 103.05,49.18 112.91,49.32 119.47,49.41 125.24,49.48 132.04,49.53 141.83,49.64 147.56,49.72 158.77,49.85 175.41,50.07 197.20,50.25 209.77,50.40 251.09,51.01 265.87,51.17 278.30,51.31 289.52,51.43 297.74,51.50"/>
    </edge>
    <edge id="224.0" from="node_217_end" to="j_merge_start_54" priority="-1" type="town" shape="969.51,72.59 975.91,73.40 984.97,74.59 997.90,76.43 1011.68,78.52 1027.55,81.09 1040.05,83.15 1053.98,85.56 1075.85,89.59 1087.36,91.84">
        <lane id="224.0_0" index="0" speed="13.89" length="115.68" width="3.66" shape="974.17,67.65 976.61,67.96 985.71,69.15 998.70,71.00 1012.53,73.10 1028.43,75.67 1040.96,77.74 1054.95,80.16 1076.87,84.20 1088.41,86.45"/>
        <lane id="224.0_1" index="1" speed="13.89" length="115.68" width="3.66" shape="973.71,71.28 976.14,71.59 985.22,72.78 998.17,74.62 1011.96,76.71 1027.84,79.28 1040.35,81.35 1054.30,83.76 1076.19,87.79 1087.71,90.04"/>
    </edge>
    <edge id="229.0" from="junction_73" to="node_229_end" priority="-1" type="town" shape="366.21,46.42 374.00,45.80 386.46,44.75 398.48,43.67 415.97,41.85 428.45,40.37 439.89,38.85">
        <lane id="229.0_0" index="0" speed="13.89" length="72.64" width="3.66" shape="367.25,44.50 373.85,43.98 386.30,42.93 398.30,41.85 415.77,40.03 428.22,38.56 439.50,37.06"/>
    </edge>
    <edge id="230.0" from="junction_73" to="node_217_start" priority="-1" type="town" shape="366.34,53.99 369.62,54.02 380.43,54.15 390.77,54.23 400.63,54.34 413.00,54.50 427.47,54.67 440.11,54.79">
        <lane id="230.0_0" index="0" speed="13.89" length="68.77" width="3.66" shape="367.39,48.51 369.68,48.53 380.48,48.66 390.82,48.74 400.70,48.85 413.07,49.01 427.53,49.18 436.16,49.26"/>
        <lane id="230.0_1" index="1" speed="13.89" length="68.77" width="3.66" shape="367.36,52.17 369.64,52.19 380.45,52.32 390.79,52.40 400.65,52.51 413.02,52.67 427.49,52.84 436.13,52.92"/>
    </edge>
    <edge id="231.0" from="node_231_start" to="j_merge_start_54" priority="-1" type="town" shape="833.92,9.15 844.49,14.74 858.80,21.44 885.04,31.53 913.38,41.37 944.12,51.49 971.71,58.91 998.23,65.41 1006.99,67.47 1016.14,69.64 1021.39,70.83 1028.41,72.41 1036.02,74.07 1045.43,75.97 1052.47,77.37 1058.93,78.62 1069.25,80.56 1088.66,84.35">
        <lane id="231.0_0" index="0" speed="13.89" length="266.14" width="3.66" shape="834.78,7.53 845.31,13.10 859.52,19.76 885.67,29.81 913.97,39.64 944.64,49.74 972.17,57.14 998.66,63.63 1007.41,65.69 1016.56,67.86 1021.79,69.05 1028.81,70.62 1036.40,72.28 1045.79,74.18 1052.82,75.58 1059.27,76.82 1069.59,78.76 1089.17,82.59"/>
    </edge>
    <edge id="235.0" from="node_229_end" to="node_235_end" priority="-1" type="town" shape="439.89,38.85 450.46,37.07 458.40,35.39 465.84,33.41 471.65,31.52 478.04,29.17 484.42,26.21 491.48,22.16 497.33,18.17 502.75,13.85 507.86,9.33 512.43,5.04 517.63,0.00">
        <lane id="235.0_0" index="0" speed="13.89" length="87.72" width="3.66" shape="439.74,37.02 450.12,35.27 457.97,33.61 465.32,31.66 471.05,29.79 477.34,27.48 483.58,24.58 490.51,20.61 496.24,16.70 501.57,12.45 506.63,7.98 511.17,3.72 516.36,-1.32"/>
    </edge>
    <edge id="236.0" from="node_236_start" to="node_236_end" priority="-1" type="town" shape="4075.69,904.92 4090.90,909.08 4119.86,917.02 4143.93,923.61 4162.79,928.81 4185.61,935.06 4214.31,942.91 4237.57,949.28 4259.32,955.28 4298.49,965.99 4327.17,973.89 4357.51,982.24 4376.17,987.39">
        <lane id="236.0_0" index="0" disallow="all" speed="13.89" length="309.96" width="3.66" shape="4079.55,896.49 4093.32,900.26 4122.28,908.20 4146.35,914.79 4165.21,919.99 4188.03,926.24 4216.73,934.09 4239.99,940.46 4261.74,946.46 4300.91,957.17 4329.60,965.07 4359.94,973.42 4378.46,978.53" type="shoulder"/>
        <lane id="236.0_1" index="1" speed="13.89" length="309.96" width="3.66" shape="4078.59,900.02 4092.35,903.79 4121.31,911.73 4145.38,918.32 4164.24,923.52 4187.06,929.77 4215.76,937.62 4239.02,943.99 4260.77,949.99 4299.94,960.70 4328.63,968.60 4358.97,976.95 4377.49,982.06"/>
        <lane id="236.0_2" index="2" speed="13.89" length="309.96" width="3.66" shape="4077.62,903.55 4091.38,907.32 4120.34,915.26 4144.41,921.85 4163.27,927.05 4186.09,933.30 4214.79,941.15 4238.05,947.52 4259.80,953.52 4298.97,964.23 4327.66,972.13 4358.00,980.48 4376.51,985.59"/>
    </edge>
    <edge id="240.0" from="node_240_start" to="node_240_end" priority="-1" type="town" shape="4107.49,897.16 4113.40,898.15 4129.88,900.80 4153.81,904.66 4167.77,906.92 4185.66,909.88 4209.32,914.01 4223.19,916.55 4238.95,919.79 4255.57,923.59 4272.96,927.87 4288.74,932.08 4305.89,937.07 4317.82,940.78">
        <lane id="240.0_0" index="0" speed="13.89" length="215.40" width="3.66" shape="4108.54,891.77 4114.29,892.73 4130.75,895.38 4154.69,899.24 4168.66,901.50 4186.58,904.47 4210.29,908.61 4224.24,911.16 4240.11,914.43 4256.84,918.25 4274.32,922.55 4290.21,926.79 4307.47,931.81 4319.45,935.54"/>
        <lane id="240.0_1" index="1" speed="13.89" length="215.40" width="3.66" shape="4107.94,895.38 4113.70,896.34 4130.17,898.99 4154.10,902.85 4168.07,905.11 4185.97,908.08 4209.64,912.21 4223.54,914.75 4239.34,918.00 4255.99,921.81 4273.41,926.10 4289.23,930.32 4306.42,935.32 4318.36,939.03"/>
    </edge>
    <edge id="241.0" from="node_241_start" to="node_241_end" priority="-1" type="town" shape="6452.70,1555.94 6479.99,1563.45 6506.95,1570.92 6545.49,1581.57 6583.29,1591.94 6586.23,1592.74">
        <lane id="241.0_0" index="0" speed="13.89" length="132.96" width="3.66" shape="6455.63,1551.05 6481.45,1558.16 6508.41,1565.63 6546.95,1576.28 6583.80,1586.39"/>
        <lane id="241.0_1" index="1" speed="13.89" length="132.96" width="3.66" shape="6454.66,1554.58 6480.48,1561.69 6507.44,1569.16 6545.98,1579.81 6582.83,1589.92"/>
    </edge>
    <edge id="242.0" from="node_242_start" to="node_242_end" priority="-1" type="town" shape="7798.27,1822.76 7811.48,1822.99 7839.51,1823.55 7867.51,1824.13 7888.79,1824.59 7900.23,1824.84 7919.45,1825.20 7933.72,1825.48">
        <lane id="242.0_0" index="0" disallow="all" speed="13.89" length="135.34" width="3.66" shape="7798.43,1813.61 7811.66,1813.84 7839.70,1814.40 7867.70,1814.98 7888.99,1815.44 7900.41,1815.69 7919.62,1816.05 7933.75,1816.33" type="shoulder"/>
        <lane id="242.0_1" index="1" speed="13.89" length="135.34" width="3.66" shape="7798.37,1817.27 7811.59,1817.50 7839.62,1818.06 7867.63,1818.64 7888.91,1819.10 7900.34,1819.35 7919.55,1819.71 7933.67,1819.99"/>
        <lane id="242.0_2" index="2" speed="13.89" length="135.34" width="3.66" shape="7798.30,1820.93 7811.52,1821.16 7839.55,1821.72 7867.55,1822.30 7888.83,1822.76 7900.27,1823.01 7919.48,1823.37 7933.60,1823.65"/>
    </edge>
    <edge id="243.0" from="node_243_start" to="junction_18" priority="-1" type="town" shape="5488.44,1291.65 5509.09,1297.24 5544.79,1307.00 5575.91,1315.53 5613.75,1325.83 5650.04,1335.82 5699.70,1349.42 5748.43,1362.80 5781.70,1371.93 5808.82,1379.38 5840.73,1388.16 5871.04,1396.47 5886.88,1400.80">
        <lane id="243.0_0" index="0" disallow="all" speed="13.89" length="413.13" width="3.66" shape="5490.83,1282.82 5511.49,1288.41 5547.21,1298.18 5578.32,1306.70 5616.17,1317.01 5652.46,1327.00 5702.12,1340.60 5750.85,1353.98 5784.12,1363.11 5811.25,1370.56 5843.15,1379.34 5873.46,1387.65 5889.29,1391.97" type="shoulder"/>
        <lane id="243.0_1" index="1" speed="13.89" length="413.13" width="3.66" shape="5489.87,1286.35 5510.53,1291.94 5546.24,1301.71 5577.36,1310.23 5615.20,1320.54 5651.49,1330.53 5701.15,1344.13 5749.88,1357.51 5783.15,1366.64 5810.28,1374.09 5842.18,1382.87 5872.49,1391.18 5888.33,1395.51"/>
        <lane id="243.0_2" index="2" speed="13.89" length="413.13" width="3.66" shape="5488.92,1289.88 5509.57,1295.48 5545.27,1305.24 5576.39,1313.77 5614.23,1324.07 5650.52,1334.06 5700.18,1347.66 5748.91,1361.04 5782.18,1370.17 5809.31,1377.62 5841.21,1386.40 5871.52,1394.71 5887.36,1399.04"/>
    </edge>
    <edge id="244.0" from="node_244_start" to="node_244_end" priority="-1" type="town" shape="4560.32,1037.82 4574.55,1041.72 4606.07,1050.36 4640.13,1059.63 4677.68,1069.96 4724.56,1082.90 4763.44,1093.53 4811.15,1106.56 4848.78,1116.89 4881.69,1125.87 4908.12,1133.08 4941.95,1142.33 4972.04,1150.56 5001.08,1158.52 5026.62,1165.50 5060.02,1174.57 5094.70,1184.06 5120.90,1191.20 5143.41,1197.40 5174.80,1205.98 5204.21,1213.99 5227.28,1220.29 5258.68,1228.86 5282.27,1235.31 5318.13,1245.14 5326.13,1247.32">
        <lane id="244.0_0" index="0" disallow="all" speed="13.89" length="793.79" width="3.66" shape="4562.88,1029.04 4576.97,1032.90 4608.48,1041.53 4642.54,1050.81 4680.11,1061.14 4726.98,1074.08 4765.85,1084.70 4813.57,1097.74 4851.20,1108.07 4884.10,1117.04 4910.53,1124.25 4944.36,1133.50 4974.46,1141.74 5003.50,1149.70 5029.02,1156.67 5062.43,1165.74 5097.11,1175.23 5123.32,1182.38 5145.83,1188.58 5177.21,1197.15 5206.62,1205.16 5229.69,1211.46 5261.09,1220.03 5284.69,1226.49 5320.55,1236.32 5328.54,1238.49" type="shoulder"/>
        <lane id="244.0_1" index="1" speed="13.89" length="793.79" width="3.66" shape="4561.92,1032.57 4576.00,1036.43 4607.52,1045.06 4641.58,1054.34 4679.14,1064.67 4726.01,1077.61 4764.89,1088.23 4812.60,1101.27 4850.23,1111.60 4883.14,1120.57 4909.57,1127.78 4943.40,1137.04 4973.49,1145.27 5002.53,1153.23 5028.06,1160.20 5061.46,1169.27 5096.15,1178.76 5122.35,1185.91 5144.86,1192.11 5176.25,1200.68 5205.65,1208.69 5228.73,1214.99 5260.13,1223.56 5283.72,1230.02 5319.58,1239.85 5327.57,1242.02"/>
        <lane id="244.0_2" index="2" speed="13.89" length="793.79" width="3.66" shape="4560.95,1036.10 4575.03,1039.96 4606.55,1048.60 4640.61,1057.87 4678.17,1068.20 4725.04,1081.14 4763.92,1091.77 4811.63,1104.80 4849.26,1115.13 4882.17,1124.11 4908.60,1131.32 4942.43,1140.57 4972.52,1148.80 5001.56,1156.76 5027.10,1163.74 5060.50,1172.81 5095.18,1182.30 5121.38,1189.44 5143.89,1195.64 5175.28,1204.22 5204.69,1212.23 5227.76,1218.53 5259.16,1227.10 5282.75,1233.55 5318.61,1243.38 5326.61,1245.56"/>
    </edge>
    <edge id="245.0" from="node_244_end" to="node_243_start" priority="-1" type="town" shape="5326.13,1247.32 5343.15,1251.96 5373.43,1260.28 5395.20,1266.17 5417.63,1272.33 5441.63,1278.93 5478.35,1288.92 5488.44,1291.65">
        <lane id="245.0_0" index="0" disallow="all" speed="13.89" length="168.24" width="3.66" shape="5328.54,1238.49 5345.57,1243.14 5375.84,1251.45 5397.61,1257.34 5420.05,1263.51 5444.04,1270.11 5480.75,1280.09 5490.83,1282.82" type="shoulder"/>
        <lane id="245.0_1" index="1" speed="13.89" length="168.24" width="3.66" shape="5327.57,1242.02 5344.60,1246.67 5374.88,1254.98 5396.64,1260.87 5419.08,1267.04 5443.08,1273.64 5479.79,1283.62 5489.87,1286.35"/>
        <lane id="245.0_2" index="2" speed="13.89" length="168.24" width="3.66" shape="5326.61,1245.56 5343.63,1250.20 5373.91,1258.52 5395.68,1264.41 5418.11,1270.57 5442.11,1277.17 5478.83,1287.15 5488.92,1289.88"/>
    </edge>
    <edge id="246.0" from="node_236_end" to="node_244_start" priority="-1" type="town" shape="4376.17,987.39 4389.67,991.12 4418.18,998.85 4442.43,1005.50 4466.21,1011.99 4486.73,1017.58 4517.76,1026.10 4546.15,1033.93 4560.32,1037.82">
        <lane id="246.0_0" index="0" disallow="all" speed="13.89" length="190.62" width="3.66" shape="4378.75,978.61 4392.09,982.30 4420.59,990.02 4444.84,996.68 4468.62,1003.16 4489.15,1008.76 4520.19,1017.28 4548.58,1025.11 4562.60,1028.96" type="shoulder"/>
        <lane id="246.0_1" index="1" speed="13.89" length="190.62" width="3.66" shape="4377.78,982.14 4391.12,985.83 4419.62,993.55 4443.88,1000.21 4467.65,1006.69 4488.18,1012.29 4519.22,1020.81 4547.61,1028.64 4561.63,1032.49"/>
        <lane id="246.0_2" index="2" speed="13.89" length="190.62" width="3.66" shape="4376.80,985.67 4390.15,989.36 4418.66,997.09 4442.91,1003.74 4466.69,1010.23 4487.21,1015.82 4518.25,1024.34 4546.64,1032.17 4560.66,1036.02"/>
    </edge>
    <edge id="247.0" from="junction_18" to="node_247_end" priority="-1" type="town" shape="6025.55,1438.80 6034.24,1441.17 6058.34,1447.76 6081.49,1454.10 6107.20,1461.19 6114.02,1463.05">
        <lane id="247.0_0" index="0" disallow="all" speed="13.89" length="91.59" width="3.66" shape="6028.92,1426.44 6037.62,1428.81 6061.72,1435.41 6084.89,1441.75 6110.60,1448.84 6117.25,1450.65" type="shoulder"/>
        <lane id="247.0_1" index="1" speed="13.89" length="91.59" width="3.66" shape="6027.96,1429.97 6036.65,1432.34 6060.76,1438.94 6083.92,1445.28 6109.63,1452.37 6116.28,1454.18"/>
        <lane id="247.0_2" index="2" speed="13.89" length="91.59" width="3.66" shape="6026.99,1433.50 6035.69,1435.87 6059.79,1442.47 6082.95,1448.81 6108.66,1455.90 6115.32,1457.72"/>
        <lane id="247.0_3" index="3" speed="13.89" length="91.59" width="3.66" shape="6026.03,1437.04 6034.72,1439.41 6058.82,1446.00 6081.98,1452.34 6107.69,1459.43 6114.36,1461.25"/>
    </edge>
    <edge id="250.0" from="node_241_start" to="node_241_end" priority="-1" type="town" shape="6454.75,1548.80 6587.22,1589.26">
        <lane id="250.0_0" index="0" disallow="all" speed="13.89" length="132.70" width="3.66" shape="6457.93,1544.03 6584.84,1582.79" type="shoulder"/>
        <lane id="250.0_1" index="1" speed="13.89" length="132.70" width="3.66" shape="6456.86,1547.53 6583.77,1586.29"/>
    </edge>
    <edge id="251.0" from="junction_105" to="node_240_start" priority="-1" type="town" shape="3983.12,872.00 3988.50,873.31 3996.85,875.31 4006.26,877.47 4014.97,879.44 4027.73,882.22 4047.28,886.28 4059.53,888.73 4067.77,890.22 4080.99,892.62 4093.99,894.91 4107.49,897.16">
        <lane id="251.0_0" index="0" speed="13.89" length="126.51" width="3.66" shape="3984.42,866.67 3989.79,867.97 3998.10,869.97 4007.48,872.12 4016.16,874.08 4028.87,876.85 4048.38,880.90 4060.56,883.34 4068.75,884.82 4081.96,887.22 4094.92,889.50 4108.25,891.72"/>
        <lane id="251.0_1" index="1" speed="13.89" length="126.51" width="3.66" shape="3983.55,870.22 3988.93,871.53 3997.27,873.53 4006.67,875.69 4015.37,877.65 4028.11,880.43 4047.65,884.49 4059.87,886.93 4068.10,888.42 4081.31,890.82 4094.30,893.11 4107.64,895.33"/>
    </edge>
    <edge id="252.0" from="node_252_start" to="node_241_start" priority="-1" type="town" shape="6263.86,1504.12 6267.15,1505.02 6283.00,1509.38 6296.65,1513.13 6317.40,1518.79 6334.42,1523.47 6361.50,1530.89 6386.38,1537.69 6413.06,1545.04 6434.57,1550.95 6452.70,1555.94">
        <lane id="252.0_0" index="0" disallow="all" speed="13.89" length="194.20" width="3.66" shape="6267.39,1491.81 6270.54,1492.67 6286.40,1497.03 6300.03,1500.77 6320.78,1506.44 6337.81,1511.12 6364.88,1518.54 6389.77,1525.34 6416.46,1532.69 6437.97,1538.60 6454.68,1543.20" type="shoulder"/>
        <lane id="252.0_1" index="1" speed="13.89" length="194.20" width="3.66" shape="6266.42,1495.34 6269.57,1496.20 6285.43,1500.56 6299.06,1504.31 6319.82,1509.97 6336.84,1514.65 6363.92,1522.07 6388.80,1528.87 6415.49,1536.22 6437.00,1542.13 6453.71,1546.73"/>