<?xml version='1.0' encoding='utf-8'?>
<edges>
    <edge id="217.0" from="node_217_start" to="node_217_end" numLanes="3" speed="13.89" type="town" shape="604377.60,3274872.55 604389.04,3274872.66 604389.04,3274872.66 604399.26,3274872.74 604399.26,3274872.74 604406.13,3274872.82 604406.13,3274872.82 604424.82,3274873.02 604424.82,3274873.02 604432.02,3274873.08 604432.02,3274873.08 604437.50,3274873.17 604437.50,3274873.17 604445.37,3274873.25 604445.37,3274873.25 604454.39,3274873.36 604454.39,3274873.36 604460.56,3274873.43 604460.56,3274873.43 604466.73,3274873.48 604466.73,3274873.48 604472.77,3274873.53 604472.77,3274873.53 604478.95,3274873.58 604478.95,3274873.58 604487.97,3274873.68 604487.97,3274873.68 604500.62,3274873.85 604500.62,3274873.85 604512.98,3274874.02 604512.98,3274874.02 604522.33,3274874.14 604522.33,3274874.14 604532.52,3274874.29 604532.52,3274874.29 604542.00,3274874.40 604542.00,3274874.40 604554.67,3274874.50 604554.67,3274874.50 604566.70,3274874.64 604566.70,3274874.64 604581.35,3274874.78 604581.35,3274874.78 604591.80,3274874.93 604591.80,3274874.93 604605.75,3274875.08 604605.75,3274875.08 604621.15,3274875.33 604621.15,3274875.33 604638.65,3274875.54 604638.65,3274875.54 604661.21,3274875.80 604661.21,3274875.80 604678.17,3274875.98 604678.17,3274875.98 604693.53,3274876.20 604693.53,3274876.20 604706.82,3274876.36 604706.82,3274876.36 604721.20,3274876.59 604721.20,3274876.59 604729.07,3274876.78 604729.07,3274876.78 604741.15,3274877.04 604741.15,3274877.04 604753.22,3274877.49 604753.22,3274877.49 604765.95,3274877.89 604765.95,3274877.89 604777.81,3274878.52 604777.81,3274878.52 604790.29,3274879.19 604790.29,3274879.19 604799.01,3274879.72 604799.01,3274879.72 604808.73,3274880.38 604808.73,3274880.38 604824.51,3274881.60 604824.51,3274881.60 604835.57,3274882.51 604835.57,3274882.51 604847.00,3274883.60 604847.00,3274883.60 604861.37,3274885.04 604861.37,3274885.04 604879.69,3274887.02 604879.69,3274887.02 604889.21,3274888.10 604889.21,3274888.10 604899.07,3274889.35 604899.07,3274889.35 604907.00,3274890.35">
        <lane index="0" width="3.66" />
        <lane index="1" width="3.66" />
        <lane index="2" width="3.66" />
    </edge>
    <edge id="219.0" from="node_219_start" to="junction_73" numLanes="2" speed="13.89" type="town" shape="603937.49,3274867.66 603949.04,3274867.77 603949.04,3274867.77 603960.15,3274867.85 603960.15,3274867.85 603971.75,3274868.03 603971.75,3274868.03 603980.44,3274868.13 603980.44,3274868.13 603989.79,3274868.23 603989.79,3274868.23 604003.87,3274868.41 604003.87,3274868.41 604012.51,3274868.48 604012.51,3274868.48 604019.80,3274868.58 604019.80,3274868.58 604031.53,3274868.70 604031.53,3274868.70 604040.52,3274868.77 604040.52,3274868.77 604050.37,3274868.91 604050.37,3274868.91 604056.94,3274869.00 604056.94,3274869.00 604062.71,3274869.07 604062.71,3274869.07 604069.51,3274869.12 604069.51,3274869.12 604079.30,3274869.23 604079.30,3274869.23 604085.03,3274869.31 604085.03,3274869.31 604096.24,3274869.44 604096.24,3274869.44 604112.88,3274869.66 604112.88,3274869.66 604134.67,3274869.84 604134.67,3274869.84 604147.24,3274869.99 604147.24,3274869.99 604188.55,3274870.60 604188.55,3274870.60 604203.34,3274870.76 604203.34,3274870.76 604215.77,3274870.90 604215.77,3274870.90 604226.99,3274871.02 604226.99,3274871.02 604235.21,3274871.09">
        <lane index="0" width="3.66" />
        <lane index="1" width="3.66" />
    </edge>
    <edge id="224.0" from="node_217_end" to="j_merge_start_54" numLanes="2" speed="13.89" type="town" shape="604907.00,3274890.35 604913.40,3274891.16 604913.40,3274891.16 604922.46,3274892.35 604922.46,3274892.35 604935.39,3274894.19 604935.39,3274894.19 604949.17,3274896.28 604949.17,3274896.28 604965.04,3274898.85 604965.04,3274898.85 604977.54,3274900.91 604977.54,3274900.91 604991.47,3274903.32 604991.47,3274903.32 605013.34,3274907.35 605013.34,3274907.35 605024.85,3274909.60">
        <lane index="0" width="3.66" />
        <lane index="1" width="3.66" />
    </edge>
    <edge id="229.0" from="junction_73" to="node_229_end" numLanes="1" speed="13.89" type="town" shape="604303.70,3274864.18 604311.49,3274863.56 604311.49,3274863.56 604323.95,3274862.51 604323.95,3274862.51 604335.97,3274861.43 604335.97,3274861.43 604353.46,3274859.61 604353.46,3274859.61 604365.94,3274858.13 604365.94,3274858.13 604377.38,3274856.61">
        <lane index="0" width="3.66" />
    </edge>
    <edge id="230.0" from="junction_73" to="node_217_start" numLanes="2" speed="13.89" type="town" shape="604303.83,3274871.75 604307.11,3274871.78 604307.11,3274871.78 604317.92,3274871.91 604317.92,3274871.91 604328.26,3274871.99 604328.26,3274871.99 604338.12,3274872.10 604338.12,3274872.10 604350.49,3274872.26 604350.49,3274872.26 604364.96,3274872.43 604364.96,3274872.43 604377.60,3274872.55">
        <lane index="0" width="3.66" />
        <lane index="1" width="3.66" />
    </edge>
    <edge id="231.0" from="node_231_start" to="j_merge_start_54" numLanes="1" speed="13.89" type="town" shape="604771.41,3274826.91 604781.98,3274832.50 604781.98,3274832.50 604796.29,3274839.20 604796.29,3274839.20 604822.53,3274849.29 604822.53,3274849.29 604850.87,3274859.13 604850.87,3274859.13 604881.61,3274869.25 604881.61,3274869.25 604909.20,3274876.67 604909.20,3274876.67 604935.72,3274883.17 604935.72,3274883.17 604944.48,3274885.23 604944.48,3274885.23 604953.63,3274887.40 604953.63,3274887.40 604958.88,3274888.59 604958.88,3274888.59 604965.90,3274890.17 604965.90,3274890.17 604973.51,3274891.83 604973.51,3274891.83 604982.92,3274893.73 604982.92,3274893.73 604989.96,3274895.13 604989.96,3274895.13 604996.42,3274896.38 604996.42,3274896.38 605006.74,3274898.32 605006.74,3274898.32 605026.15,3274902.11">
        <lane index="0" width="3.66" />
    </edge>
    <edge id="235.0" from="node_229_end" to="node_235_end" numLanes="1" speed="13.89" type="town" shape="604377.38,3274856.61 604387.95,3274854.83 604387.95,3274854.83 604395.89,3274853.15 604395.89,3274853.15 604403.33,3274851.17 604403.33,3274851.17 604409.14,3274849.28 604409.14,3274849.28 604415.53,3274846.93 604415.53,3274846.93 604421.91,3274843.97 604421.91,3274843.97 604428.97,3274839.92 604428.97,3274839.92 604434.82,3274835.93 604434.82,3274835.93 604440.24,3274831.61 604440.24,3274831.61 604445.35,3274827.09 604445.35,3274827.09 604449.92,3274822.80 604449.92,3274822.80 604455.12,3274817.76">
        <lane index="0" width="3.66" />
    </edge>
    <edge id="236.0" from="node_236_start" to="node_236_end" numLanes="3" speed="13.89" type="town" shape="608013.18,3275722.68 608028.39,3275726.84 608028.39,3275726.84 608057.35,3275734.78 608057.35,3275734.78 608081.42,3275741.37 608081.42,3275741.37 608100.28,3275746.57 608100.28,3275746.57 608123.10,3275752.82 608123.10,3275752.82 608151.80,3275760.67 608151.80,3275760.67 608175.06,3275767.04 608175.06,3275767.04 608196.81,3275773.04 608196.81,3275773.04 608235.98,3275783.75 608235.98,3275783.75 608264.66,3275791.65 608264.66,3275791.65 608295.00,3275800.00 608295.00,3275800.00 608313.66,3275805.15">
        <lane index="0" width="3.66" type="shoulder" disallow="all" />
        <lane index="1" width="3.66" />
        <lane index="2" width="3.66" />
    </edge>
    <edge id="240.0" from="node_240_start" to="node_240_end" numLanes="2" speed="13.89" type="town" shape="608044.98,3275714.92 608050.89,3275715.91 608050.89,3275715.91 608067.37,3275718.56 608067.37,3275718.56 608091.30,3275722.42 608091.30,3275722.42 608105.26,3275724.68 608105.26,3275724.68 608123.15,3275727.64 608123.15,3275727.64 608146.81,3275731.77 608146.81,3275731.77 608160.68,3275734.31 608160.68,3275734.31 608176.44,3275737.55 608176.44,3275737.55 608193.06,3275741.35 608193.06,3275741.35 608210.45,3275745.63 608210.45,3275745.63 608226.23,3275749.84 608226.23,3275749.84 608243.38,3275754.83 608243.38,3275754.83 608255.31,3275758.54">
        <lane index="0" width="3.66" />
        <lane index="1" width="3.66" />
    </edge>
    <edge id="241.0" from="node_241_start" to="node_241_end" numLanes="2" speed="13.89" type="town" shape="610390.19,3276373.70 610417.48,3276381.21 610417.48,3276381.21 610444.44,3276388.68 610444.44,3276388.68 610482.98,3276399.33 610482.98,3276399.33 610520.78,3276409.70 610520.78,3276409.70 610523.72,3276410.50">
        <lane index="0" width="3.66" />
        <lane index="1" width="3.66" />
    </edge>
    <edge id="242.0" from="node_242_start" to="node_242_end" numLanes="3" speed="13.89" type="town" shape="611735.76,3276640.52 611748.97,3276640.75 611748.97,3276640.75 611777.00,3276641.31 611777.00,3276641.31 611805.00,3276641.89 611805.00,3276641.89 611826.28,3276642.35 611826.28,3276642.35 611837.72,3276642.60 611837.72,3276642.60 611856.94,3276642.96 611856.94,3276642.96 611871.21,3276643.24">
        <lane index="0" width="3.66" type="shoulder" disallow="all" />
        <lane index="1" width="3.66" />
        <lane index="2" width="3.66" />
    </edge>
    <edge id="243.0" from="node_243_start" to="junction_18" numLanes="3" speed="13.89" type="town" shape="609425.93,3276109.41 609446.58,3276115.00 609446.58,3276115.00 609482.28,3276124.76 609482.28,3276124.76 609513.40,3276133.29 609513.40,3276133.29 609551.24,3276143.59 609551.24,3276143.59 609587.53,3276153.58 609587.53,3276153.58 609637.19,3276167.18 609637.19,3276167.18 609685.92,3276180.56 609685.92,3276180.56 609719.19,3276189.69 609719.19,3276189.69 609746.31,3276197.14 609746.31,3276197.14 609778.22,3276205.92 609778.22,3276205.92 609808.53,3276214.23 609808.53,3276214.23 609824.37,3276218.56">
        <lane index="0" width="3.66" type="shoulder" disallow="all" />
        <lane index="1" width="3.66" />
        <lane index="2" width="3.66" />
    </edge>
    <edge id="244.0" from="node_244_start" to="node_244_end" numLanes="3" speed="13.89" type="town" shape="608497.81,3275855.58 608512.04,3275859.48 608512.04,3275859.48 608543.56,3275868.12 608543.56,3275868.12 608577.62,3275877.39 608577.62,3275877.39 608615.17,3275887.72 608615.17,3275887.72 608662.05,3275900.66 608662.05,3275900.66 608700.93,3275911.29 608700.93,3275911.29 608748.64,3275924.32 608748.64,3275924.32 608786.27,3275934.65 608786.27,3275934.65 608819.18,3275943.63 608819.18,3275943.63 608845.61,3275950.84 608845.61,3275950.84 608879.44,3275960.09 608879.44,3275960.09 608909.53,3275968.32 608909.53,3275968.32 608938.57,3275976.28 608938.57,3275976.28 608964.11,3275983.26 608964.11,3275983.26 608997.51,3275992.33 608997.51,3275992.33 609032.19,3276001.82 609032.19,3276001.82 609058.39,3276008.96 609058.39,3276008.96 609080.90,3276015.16 609080.90,3276015.16 609112.29,3276023.74 609112.29,3276023.74 609141.70,3276031.75 609141.70,3276031.75 609164.77,3276038.05 609164.77,3276038.05 609196.17,3276046.62 609196.17,3276046.62 609219.76,3276053.07 609219.76,3276053.07 609255.62,3276062.90 609255.62,3276062.90 609263.62,3276065.08">
        <lane index="0" width="3.66" type="shoulder" disallow="all" />
        <lane index="1" width="3.66" />
        <lane index="2" width="3.66" />
    </edge>
    <edge id="245.0" from="node_244_end" to="node_243_start" numLanes="3" speed="13.89" type="town" shape="609263.62,3276065.08 609280.64,3276069.72 609280.64,3276069.72 609310.92,3276078.04 609310.92,3276078.04 609332.69,3276083.93 609332.69,3276083.93 609355.12,3276090.09 609355.12,3276090.09 609379.12,3276096.69 609379.12,3276096.69 609415.84,3276106.68 609415.84,3276106.68 609425.93,3276109.41">
        <lane index="0" width="3.66" type="shoulder" disallow="all" />
        <lane index="1" width="3.66" />
        <lane index="2" width="3.66" />
    </edge>
    <edge id="246.0" from="node_236_end" to="node_244_start" numLanes="3" speed="13.89" type="town" shape="608313.66,3275805.15 608327.16,3275808.88 608327.16,3275808.88 608355.67,3275816.61 608355.67,3275816.61 608379.92,3275823.26 608379.92,3275823.26 608403.70,3275829.75 608403.70,3275829.75 608424.22,3275835.34 608424.22,3275835.34 608455.25,3275843.86 608455.25,3275843.86 608483.64,3275851.69 608483.64,3275851.69 608497.81,3275855.58">
        <lane index="0" width="3.66" type="shoulder" disallow="all" />
        <lane index="1" width="3.66" />
        <lane index="2" width="3.66" />
    </edge>
    <edge id="247.0" from="junction_18" to="node_247_end" numLanes="4" speed="13.89" type="town" shape="609963.04,3276256.56 609971.73,3276258.93 609971.73,3276258.93 609995.83,3276265.52 609995.83,3276265.52 610018.98,3276271.86 610018.98,3276271.86 610044.69,3276278.95 610044.69,3276278.95 610051.51,3276280.81">
        <lane index="0" width="3.66" type="shoulder" disallow="all" />
        <lane index="1" width="3.66" />
        <lane index="2" width="3.66" />
        <lane index="3" width="3.66" />
    </edge>
    <edge id="250.0" from="node_241_start" to="node_241_end" numLanes="2" speed="13.89" type="town" shape="610392.24,3276366.56 610524.71,3276407.02">
        <lane index="0" width="3.66" type="shoulder" disallow="all" />
        <lane index="1" width="3.66" />
    </edge>
    <edge id="251.0" from="junction_105" to="node_240_start" numLanes="2" speed="13.89" type="town" shape="607920.61,3275689.76 607925.99,3275691.07 607925.99,3275691.07 607934.34,3275693.07 607934.34,3275693.07 607943.75,3275695.23 607943.75,3275695.23 607952.46,3275697.20 607952.46,3275697.20 607965.22,3275699.98 607965.22,3275699.98 607984.77,3275704.04 607984.77,3275704.04 607997.02,3275706.49 607997.02,3275706.49 608005.26,3275707.98 608005.26,3275707.98 608018.48,3275710.38 608018.48,3275710.38 608031.48,3275712.67 608031.48,3275712.67 608044.98,3275714.92">
        <lane index="0" width="3.66" />
        <lane index="1" width="3.66" />
    </edge>
    <edge id="252.0" from="node_252_start" to="node_241_start" numLanes="4" speed="13.89" type="town" shape="610201.35,3276321.88 610204.64,3276322.78 610204.64,3276322.78 610220.49,3276327.14 610220.49,3276327.14 610234.14,3276330.89 610234.14,3276330.89 610254.89,3276336.55 610254.89,3276336.55 610271.91,3276341.23 610271.91,3276341.23 610298.99,3276348.65 610298.99,3276348.65 610323.87,3276355.45 610323.87,3276355.45 610350.55,3276362.80 610350.55,3276362.80 610372.06,3276368.71 610372.06,3276368.71 610390.19,3276373.70">
        <lane index="0" width="3.66" type="shoulder" disallow="all" />
        <lane index="1" width="3.66" />
        <lane index="2" width="3.66" />
        <lane index="3" width="3.66" />
    </edge>
    <edge id="253.0" from="junction_105" to="node_236_start" numLanes="2" speed="13.89" type="town" shape="607918.63,3275696.86 607934.96,3275701.30 607934.96,3275701.30 607959.68,3275708.02 607959.68,3275708.02 607982.57,3275714.29 607982.57,3275714.29 608009.05,3275721.55 608009.05,3275721.55 608013.18,3275722.68">
        <lane index="0" width="3.66" />
        <lane index="1" width="3.66" />
    </edge>
    <edge id="254.0" from="node_264_start" to="node_264_end" numLanes="1" speed="13.89" type="town" shape="607303.97,3275524.87 607387.22,3275544.02">
        <lane index="0" width="3.66" />
    </edge>
    <edge id="257.0" from="node_242_end" to="junction_74" numLanes="3" speed="13.89" type="town" shape="611871.21,3276643.24 611874.10,3276643.29 611874.10,3276643.29 611892.02,3276643.58 611892.02,3276643.58 611911.47,3276643.96 611911.47,3276643.96 611934.54,3276644.46 611934.54,3276644.46 611950.92,3276644.79 611950.92,3276644.79 611964.32,3276645.09 611964.32,3276645.09 611974.07,3276645.28 611974.07,3276645.28 611983.38,3276645.47 611983.38,3276645.47 611995.96,3276645.72 611995.96,3276645.72 612009.98,3276646.04 612009.98,3276646.04 612027.15,3276646.34 612027.15,3276646.34 612043.03,3276646.66 612043.03,3276646.66 612064.88,3276647.05 612064.88,3276647.05 612085.97,3276647.39 612085.97,3276647.39 612101.66,3276647.69 612101.66,3276647.69 612116.01,3276647.99 612116.01,3276647.99 612127.96,3276648.23 612127.96,3276648.23 612142.59,3276648.44 612142.59,3276648.44 612165.51,3276648.85 612165.51,3276648.85 612213.18,3276649.85 612213.18,3276649.85 612242.49,3276650.46 612242.49,3276650.46 612273.56,3276651.12 612273.56,3276651.12 612302.71,3276651.66 612302.71,3276651.66 612326.38,3276652.14 612326.38,3276652.14 612363.88,3276652.86 612363.88,3276652.86 612396.46,3276653.51 612396.46,3276653.51 612420.91,3276654.01 612420.91,3276654.01 612441.68,3276654.40 612441.68,3276654.40 612464.51,3276654.88 612464.51,3276654.88 612484.99,3276655.29 612484.99,3276655.29 612511.52,3276655.76 612511.52,3276655.76 612544.87,3276656.35">
        <lane index="0" width="3.66" type="shoulder" disallow="all" />
        <lane index="1" width="3.66" />
        <lane index="2" width="3.66" />
    </edge>
    <edge id="258.0" from="node_247_end" to="node_252_start" numLanes="4" speed="13.89" type="town" shape="610051.51,3276280.81 610061.38,3276283.51 610061.38,3276283.51 610081.04,3276288.91 610081.04,3276288.91 610106.56,3276295.90 610106.56,3276295.90 610120.77,3276299.82 610120.77,3276299.82 610136.72,3276304.17 610136.72,3276304.17 610150.28,3276307.87 610150.28,3276307.87 610169.07,3276313.01 610169.07,3276313.01 610186.61,3276317.82 610186.61,3276317.82 610201.35,3276321.88">
        <lane index="0" width="3.66" type="shoulder" disallow="all" />
        <lane index="1" width="3.66" />
        <lane index="2" width="3.66" />
        <lane index="3" width="3.66" />
    </edge>
    <edge id="259.0" from="node_241_end" to="node_242_start" numLanes="3" speed="13.89" type="town" shape="610523.72,3276410.50 610554.56,3276418.94 610554.56,3276418.94 610578.00,3276425.37 610578.00,3276425.37 610609.49,3276433.92 610609.49,3276433.92 610637.09,3276441.45 610637.09,3276441.45 610658.49,3276447.35 610658.49,3276447.35 610683.86,3276454.38 610683.86,3276454.38 610719.36,3276464.19 610719.36,3276464.19 610746.60,3276471.72 610746.60,3276471.72 610767.93,3276477.59 610767.93,3276477.59 610804.62,3276487.69 610804.62,3276487.69 610827.86,3276494.07 610827.86,3276494.07 610852.88,3276500.96 610852.88,3276500.96 610888.03,3276510.56 610888.03,3276510.56 610932.55,3276522.78 610932.55,3276522.78 610965.75,3276531.76 610965.75,3276531.76 610999.93,3276541.12 610999.93,3276541.12 611027.63,3276548.57 611027.63,3276548.57 611055.27,3276556.06 611055.27,3276556.06 611085.96,3276564.38 611085.96,3276564.38 611114.08,3276572.08 611114.08,3276572.08 611135.97,3276577.98 611135.97,3276577.98 611161.59,3276584.64 611161.59,3276584.64 611171.80,3276587.20 611171.80,3276587.20 611183.57,3276589.98 611183.57,3276589.98 611201.95,3276594.24 611201.95,3276594.24 611223.31,3276599.02 611223.31,3276599.02 611237.16,3276601.98 611237.16,3276601.98 611254.21,3276605.44 611254.21,3276605.44 611273.74,3276609.13 611273.74,3276609.13 611290.80,3276612.14 611290.80,3276612.14 611300.48,3276613.82 611300.48,3276613.82 611318.09,3276616.69 611318.09,3276616.69 611332.92,3276618.89 611332.92,3276618.89 611349.12,3276621.13 611349.12,3276621.13 611363.74,3276623.06 611363.74,3276623.06 611372.62,3276624.17 611372.62,3276624.17 611378.93,3276624.92 611378.93,3276624.92 611395.91,3276626.82 611395.91,3276626.82 611415.83,3276628.89 611415.83,3276628.89 611429.83,3276630.19 611429.83,3276630.19 611449.45,3276631.82 611449.45,3276631.82 611464.13,3276632.97 611464.13,3276632.97 611481.72,3276634.17 611481.72,3276634.17 611494.68,3276634.85 611494.68,3276634.85 611510.12,3276635.53 611510.12,3276635.53 611525.64,3276636.10 611525.64,3276636.10 611541.33,3276636.55 611541.33,3276636.55 611563.21,3276637.09 611563.21,3276637.09 611575.56,3276637.33 611575.56,3276637.33 611604.79,3276637.91 611604.79,3276637.91 611635.98,3276638.50 611635.98,3276638.50 611670.87,3276639.19 611670.87,3276639.19 611705.40,3276639.92 611705.40,3276639.92 611725.94,3276640.35 611725.94,3276640.35 611735.76,3276640.52">
        <lane index="0" width="3.66" type="shoulder" disallow="all" />
        <lane index="1" width="3.66" />
        <lane index="2" width="3.66" />
    </edge>
    <edge id="264.0" from="node_264_start" to="node_264_end" numLanes="2" speed="13.89" type="town" shape="607303.00,3275528.41 607313.28,3275531.24 607313.28,3275531.24 607327.56,3275535.13 607327.56,3275535.13 607342.48,3275539.24 607342.48,3275539.24 607361.47,3275544.44 607361.47,3275544.44 607375.94,3275548.38 607375.94,3275548.38 607385.31,3275550.96">
        <lane index="0" width="3.66" />
        <lane index="1" width="3.66" />
    </edge>
    <edge id="831.0" from="node_264_end" to="junction_105" numLanes="3" speed="13.89" type="town" shape="607385.31,3275550.96 607389.38,3275552.09 607389.38,3275552.09 607407.08,3275556.91 607407.08,3275556.91 607421.78,3275560.98 607421.78,3275560.98 607452.37,3275569.35 607452.37,3275569.35 607484.85,3275578.25 607484.85,3275578.25 607517.25,3275587.12 607517.25,3275587.12 607540.45,3275593.47 607540.45,3275593.47 607557.57,3275598.15 607557.57,3275598.15 607588.04,3275606.50 607588.04,3275606.50 607612.66,3275613.30 607612.66,3275613.30 607641.37,3275621.18 607641.37,3275621.18 607664.24,3275627.41 607664.24,3275627.41 607687.20,3275633.69 607687.20,3275633.69 607705.64,3275638.69 607705.64,3275638.69 607730.17,3275645.38 607730.17,3275645.38 607755.18,3275652.22 607755.18,3275652.22 607769.84,3275656.25 607769.84,3275656.25 607776.51,3275658.07">
        <lane index="0" width="3.66" />
        <lane index="1" width="3.66" />
        <lane index="2" width="3.66" />
    </edge>
    <edge id="951.0" from="j_merge_end_54" to="node_264_start" numLanes="3" speed="13.89" type="town" shape="605337.96,3274990.17 605339.71,3274990.67 605339.71,3274990.67 605345.34,3274992.20 605345.34,3274992.20 605352.32,3274994.12 605352.32,3274994.12 605362.35,3274996.85 605362.35,3274996.85 605369.23,3274998.72 605369.23,3274998.72 605374.73,3275000.26 605374.73,3275000.26 605382.95,3275002.51 605382.95,3275002.51 605391.02,3275004.75 605391.02,3275004.75 605405.61,3275008.79 605405.61,3275008.79 605423.02,3275013.54 605423.02,3275013.54 605433.48,3275016.42 605433.48,3275016.42 605443.71,3275019.26 605443.71,3275019.26 605449.42,3275020.80 605449.42,3275020.80 605456.14,3275022.68 605456.14,3275022.68 605462.66,3275024.49 605462.66,3275024.49 605468.74,3275026.16 605468.74,3275026.16 605477.70,3275028.65 605477.70,3275028.65 605484.47,3275030.53 605484.47,3275030.53 605489.95,3275032.05 605489.95,3275032.05 605495.28,3275033.50 605495.28,3275033.50 605501.87,3275035.33 605501.87,3275035.33 605508.85,3275037.28 605508.85,3275037.28 605515.92,3275039.21 605515.92,3275039.21 605523.70,3275041.38 605523.70,3275041.38 605537.88,3275045.26 605537.88,3275045.26 605550.93,3275048.87 605550.93,3275048.87 605558.68,3275050.98 605558.68,3275050.98 605568.82,3275053.79 605568.82,3275053.79 605578.20,3275056.34 605578.20,3275056.34 605588.28,3275059.11 605588.28,3275059.11 605602.48,3275063.01 605602.48,3275063.01 605613.20,3275065.93 605613.20,3275065.93 605622.10,3275068.41 605622.10,3275068.41 605631.46,3275070.96 605631.46,3275070.96 605639.97,3275073.29 605639.97,3275073.29 605646.59,3275075.09 605646.59,3275075.09 605653.51,3275077.01 605653.51,3275077.01 605661.23,3275079.06 605661.23,3275079.06 605669.16,3275081.25 605669.16,3275081.25 605675.66,3275082.98 605675.66,3275082.98 605681.83,3275084.70 605681.83,3275084.70 605688.24,3275086.44 605688.24,3275086.44 605695.28,3275088.37 605695.28,3275088.37 605703.41,3275090.58 605703.41,3275090.58 605712.33,3275093.02 605712.33,3275093.02 605719.18,3275094.85 605719.18,3275094.85 605729.63,3275097.72 605729.63,3275097.72 605740.87,3275100.75 605740.87,3275100.75 605752.61,3275103.97 605752.61,3275103.97 605761.02,3275106.26 605761.02,3275106.26 605770.11,3275108.71 605770.11,3275108.71 605779.37,3275111.21 605779.37,3275111.21 605786.56,3275113.16 605786.56,3275113.16 605794.28,3275115.26 605794.28,3275115.26 605807.92,3275118.97 605807.92,3275118.97 605819.35,3275122.10 605819.35,3275122.10 605831.67,3275125.45 605831.67,3275125.45 605841.13,3275128.08 605841.13,3275128.08 605850.98,3275130.74 605850.98,3275130.74 605860.19,3275133.29 605860.19,3275133.29 605868.84,3275135.69 605868.84,3275135.69 605880.08,3275138.74 605880.08,3275138.74 605891.02,3275141.76 605891.02,3275141.76 605901.03,3275144.53 605901.03,3275144.53 605910.28,3275147.05 605910.28,3275147.05 605919.01,3275149.45 605919.01,3275149.45 605930.09,3275152.52 605930.09,3275152.52 605938.52,3275154.83 605938.52,3275154.83 605949.75,3275157.90 605949.75,3275157.90 605960.87,3275160.91 605960.87,3275160.91 605974.39,3275164.63 605974.39,3275164.63 605986.79,3275168.04 605986.79,3275168.04 605996.24,3275170.62 605996.24,3275170.62 606011.00,3275174.68 606011.00,3275174.68 606022.08,3275177.71 606022.08,3275177.71 606032.48,3275180.57 606032.48,3275180.57 606043.36,3275183.57 606043.36,3275183.57 606054.95,3275186.73 606054.95,3275186.73 606067.79,3275190.22 606067.79,3275190.22 606079.03,3275193.31 606079.03,3275193.31 606090.23,3275196.36 606090.23,3275196.36 606105.02,3275200.42 606105.02,3275200.42 606117.81,3275203.90 606117.81,3275203.90 606129.45,3275207.06 606129.45,3275207.06 606144.64,3275211.19 606144.64,3275211.19 606154.31,3275213.83 606154.31,3275213.83 606163.36,3275216.33 606163.36,3275216.33 606173.94,3275219.21 606173.94,3275219.21 606184.41,3275222.09 606184.41,3275222.09 606193.94,3275224.69 606193.94,3275224.69 606203.04,3275227.21 606203.04,3275227.21 606213.72,3275230.14 606213.72,3275230.14 606225.33,3275233.33 606225.33,3275233.33 606236.86,3275236.48 606236.86,3275236.48 606247.12,3275239.29 606247.12,3275239.29 606256.96,3275241.97 606256.96,3275241.97 606271.42,3275245.88 606271.42,3275245.88 606283.29,3275249.19 606283.29,3275249.19 606295.46,3275252.52 606295.46,3275252.52 606303.24,3275254.62 606303.24,3275254.62 606308.97,3275256.21 606308.97,3275256.21 606315.98,3275258.12 606315.98,3275258.12 606322.97,3275260.01 606322.97,3275260.01 606330.58,3275262.10 606330.58,3275262.10 606338.69,3275264.30 606338.69,3275264.30 606348.22,3275266.91 606348.22,3275266.91 606359.09,3275269.88 606359.09,3275269.88 606371.72,3275273.35 606371.72,3275273.35 606383.58,3275276.61 606383.58,3275276.61 606393.99,3275279.46 606393.99,3275279.46 606406.19,3275282.82 606406.19,3275282.82 606415.25,3275285.31 606415.25,3275285.31 606424.02,3275287.67 606424.02,3275287.67 606432.93,3275290.14 606432.93,3275290.14 606443.73,3275293.10 606443.73,3275293.10 606454.49,3275296.07 606454.49,3275296.07 606468.45,3275299.88 606468.45,3275299.88 606480.42,3275303.13 606480.42,3275303.13 606489.57,3275305.61 606489.57,3275305.61 606502.09,3275308.99 606502.09,3275308.99 606512.94,3275311.96 606512.94,3275311.96 606521.57,3275314.32 606521.57,3275314.32 606532.96,3275317.42 606532.96,3275317.42 606546.26,3275321.10 606546.26,3275321.10 606561.01,3275325.12 606561.01,3275325.12 606572.25,3275328.22 606572.25,3275328.22 606581.94,3275330.87 606581.94,3275330.87 606592.54,3275333.80 606592.54,3275333.80 606605.38,3275337.30 606605.38,3275337.30 606615.94,3275340.18 606615.94,3275340.18 606625.32,3275342.73 606625.32,3275342.73 606634.73,3275345.31 606634.73,3275345.31 606644.19,3275347.92 606644.19,3275347.92 606650.69,3275349.68 606650.69,3275349.68 606659.25,3275352.00 606659.25,3275352.00 606667.20,3275354.23 606667.20,3275354.23 606674.74,3275356.31 606674.74,3275356.31 606679.81,3275357.67 606679.81,3275357.67 606684.43,3275358.93 606684.43,3275358.93 606689.90,3275360.44 606689.90,3275360.44 606696.70,3275362.30 606696.70,3275362.30 606706.27,3275364.95 606706.27,3275364.95 606716.61,3275367.73 606716.61,3275367.73 606724.39,3275369.86 606724.39,3275369.86 606731.13,3275371.68 606731.13,3275371.68 606743.11,3275374.98 606743.11,3275374.98 606753.50,3275377.82 606753.50,3275377.82 606766.38,3275381.35 606766.38,3275381.35 606773.85,3275383.39 606773.85,3275383.39 606783.10,3275385.94 606783.10,3275385.94 606795.10,3275389.20 606795.10,3275389.20 606804.12,3275391.65 606804.12,3275391.65 606812.04,3275393.84 606812.04,3275393.84 606824.94,3275397.37 606824.94,3275397.37 606834.81,3275400.08 606834.81,3275400.08 606845.11,3275402.90 606845.11,3275402.90 606856.11,3275405.91 606856.11,3275405.91 606874.84,3275411.10 606874.84,3275411.10 606889.85,3275415.18 606889.85,3275415.18 606901.37,3275418.36 606901.37,3275418.36 606910.13,3275420.79 606910.13,3275420.79 606918.04,3275422.97 606918.04,3275422.97 606927.34,3275425.55 606927.34,3275425.55 606940.40,3275429.17 606940.40,3275429.17 606958.34,3275434.11 606958.34,3275434.11 606966.20,3275436.28 606966.20,3275436.28 606979.80,3275440.04 606979.80,3275440.04 606989.45,3275442.71 606989.45,3275442.71 606999.72,3275445.54 606999.72,3275445.54 607010.43,3275448.42 607010.43,3275448.42 607026.74,3275452.88 607026.74,3275452.88 607042.62,3275457.21 607042.62,3275457.21 607057.05,3275461.13 607057.05,3275461.13 607082.14,3275467.99 607082.14,3275467.99 607097.53,3275472.21 607097.53,3275472.21 607125.57,3275479.90 607125.57,3275479.90 607145.56,3275485.35 607145.56,3275485.35 607162.57,3275489.98 607162.57,3275489.98 607173.36,3275492.94 607173.36,3275492.94 607181.04,3275495.05 607181.04,3275495.05 607186.69,3275496.62 607186.69,3275496.62 607200.09,3275500.26 607200.09,3275500.26 607218.90,3275505.40 607218.90,3275505.40 607232.78,3275509.22 607232.78,3275509.22 607245.66,3275512.70 607245.66,3275512.70 607259.94,3275516.62 607259.94,3275516.62 607272.93,3275520.17 607272.93,3275520.17 607287.11,3275524.05 607287.11,3275524.05 607300.43,3275527.71 607300.43,3275527.71 607303.00,3275528.41">
        <lane index="0" width="3.66" type="shoulder" disallow="all" />
        <lane index="1" width="3.66" />
        <lane index="2" width="3.66" />
    </edge>