<?xml version='1.0' encoding='utf-8'?>
<connections>
    <connection from="197.0" to="208.0" fromLane="2" toLane="2" />
    <connection from="197.0" to="208.0" fromLane="1" toLane="1" />
    <connection from="185.0" to="200.0" fromLane="0" toLane="0" />
    <connection from="185.0" to="199.0" fromLane="0" toLane="0" />
    <connection from="185.0" to="199.0" fromLane="1" toLane="1" />
    <connection from="198.0" to="819.0" fromLane="2" toLane="1" />
    <connection from="198.0" to="819.0" fromLane="1" toLane="0" />
</connections>