<?xml version='1.0' encoding='utf-8'?>
<edges>
    <edge id="173.0" from="node_173_start" to="node_173_end" numLanes="2" speed="13.89" type="town" shape="596166.05,3272190.76 596180.57,3272199.84 596180.57,3272199.84 596203.77,3272214.17 596203.77,3272214.17 596220.67,3272224.89 596220.67,3272224.89 596225.05,3272227.58">
        <lane index="0" width="3.66" />
        <lane index="1" width="3.66" />
    </edge>
    <edge id="177.0" from="node_173_start" to="node_173_end" numLanes="1" speed="13.89" type="town" shape="596169.93,3272184.61 596227.00,3272224.47">
        <lane index="0" width="3.66" />
    </edge>
    <edge id="185.0" from="node_173_end" to="junction_70" numLanes="2" speed="13.89" type="town" shape="596225.05,3272227.58 596232.50,3272232.18 596232.50,3272232.18 596266.38,3272253.27 596266.38,3272253.27 596296.76,3272272.29 596296.76,3272272.29 596320.71,3272287.22 596320.71,3272287.22 596342.67,3272300.75 596342.67,3272300.75 596352.68,3272306.94 596352.68,3272306.94 596360.41,3272311.86 596360.41,3272311.86 596371.65,3272318.66 596371.65,3272318.66 596383.16,3272325.61 596383.16,3272325.61 596394.71,3272332.51 596394.71,3272332.51 596406.80,3272339.76 596406.80,3272339.76 596412.70,3272343.24 596412.70,3272343.24 596424.31,3272350.01 596424.31,3272350.01 596431.24,3272354.06 596431.24,3272354.06 596442.71,3272360.73 596442.71,3272360.73 596458.87,3272370.26 596458.87,3272370.26 596470.73,3272377.34 596470.73,3272377.34 596482.26,3272384.21 596482.26,3272384.21 596493.33,3272390.95 596493.33,3272390.95 596504.24,3272397.59 596504.24,3272397.59 596509.74,3272400.94 596509.74,3272400.94 596520.64,3272407.64 596520.64,3272407.64 596531.18,3272414.16 596531.18,3272414.16 596541.68,3272420.73 596541.68,3272420.73 596548.05,3272424.70 596548.05,3272424.70 596559.49,3272431.95 596559.49,3272431.95 596570.75,3272439.05 596570.75,3272439.05 596587.79,3272450.00 596587.79,3272450.00 596599.06,3272457.34 596599.06,3272457.34 596610.49,3272464.83 596610.49,3272464.83 596620.15,3272471.19">
        <lane index="0" width="3.66" />
        <lane index="1" width="3.66" />
    </edge>
    <edge id="193.0" from="junction_13" to="node_173_start" numLanes="3" speed="13.89" type="town" shape="595989.80,3272079.87 596003.34,3272088.65 596003.34,3272088.65 596020.00,3272099.37 596020.00,3272099.37 596036.59,3272109.92 596036.59,3272109.92 596047.57,3272116.86 596047.57,3272116.86 596075.71,3272134.39 596075.71,3272134.39 596093.68,3272145.55 596093.68,3272145.55 596115.46,3272159.10 596115.46,3272159.10 596142.16,3272175.81 596142.16,3272175.81 596166.05,3272190.76">
        <lane index="0" width="3.66" />
        <lane index="1" width="3.66" />
        <lane index="2" width="3.66" />
    </edge>
    <edge id="197.0" from="node_197_start" to="junction_15" numLanes="3" speed="13.89" type="town" shape="597289.38,3272977.54 597301.19,3272986.21 597301.19,3272986.21 597306.55,3272990.03 597306.55,3272990.03 597317.58,3272997.87 597317.58,3272997.87 597328.56,3273005.65 597328.56,3273005.65 597339.76,3273013.57 597339.76,3273013.57 597341.37,3273014.72 597341.37,3273014.72 597351.07,3273021.61 597351.07,3273021.61 597362.44,3273029.77 597362.44,3273029.77 597373.38,3273037.68 597373.38,3273037.68 597377.02,3273040.31">
        <lane index="0" width="3.66" type="shoulder" disallow="all" />
        <lane index="1" width="3.66" />
        <lane index="2" width="3.66" />
    </edge>
    <edge id="198.0" from="node_198_start" to="junction_72" numLanes="3" speed="13.89" type="town" shape="598321.69,3273788.48 598322.47,3273789.10 598322.47,3273789.10 598333.87,3273798.23 598333.87,3273798.23 598344.66,3273806.83 598344.66,3273806.83 598356.01,3273815.82 598356.01,3273815.82 598364.74,3273822.72 598364.74,3273822.72 598375.50,3273831.28 598375.50,3273831.28 598383.02,3273837.29 598383.02,3273837.29 598392.55,3273844.88 598392.55,3273844.88 598400.94,3273851.55 598400.94,3273851.55 598408.45,3273857.54 598408.45,3273857.54 598413.85,3273861.72">
        <lane index="0" width="3.66" />
        <lane index="1" width="3.66" />
        <lane index="2" width="3.66" />
    </edge>
    <edge id="199.0" from="junction_70" to="node_197_start" numLanes="2" speed="13.89" type="town" shape="596697.71,3272523.81 596706.79,3272530.10 596706.79,3272530.10 596718.23,3272538.15 596718.23,3272538.15 596729.57,3272546.17 596729.57,3272546.17 596740.73,3272554.17 596740.73,3272554.17 596752.21,3272562.41 596752.21,3272562.41 596763.74,3272570.79 596763.74,3272570.79 596772.97,3272577.54 596772.97,3272577.54 596785.22,3272586.55 596785.22,3272586.55 596795.94,3272594.50 596795.94,3272594.50 596807.00,3272602.76 596807.00,3272602.76 596818.02,3272611.03 596818.02,3272611.03 596823.36,3272615.05 596823.36,3272615.05 596841.56,3272628.93 596841.56,3272628.93 596852.02,3272637.02 596852.02,3272637.02 596860.80,3272643.86 596860.80,3272643.86 596871.73,3272652.38 596871.73,3272652.38 596882.58,3272660.87 596882.58,3272660.87 596893.17,3272669.31 596893.17,3272669.31 596903.85,3272677.81 596903.85,3272677.81 596913.45,3272685.34 596913.45,3272685.34 596923.95,3272693.51 596923.95,3272693.51 596934.56,3272701.77 596934.56,3272701.77 596945.19,3272710.03 596945.19,3272710.03 596956.08,3272718.40 596956.08,3272718.40 596967.28,3272726.88 596967.28,3272726.88 596978.29,3272735.19 596978.29,3272735.19 596989.09,3272743.43 596989.09,3272743.43 596999.84,3272751.70 596999.84,3272751.70 597005.20,3272755.78 597005.20,3272755.78 597017.79,3272765.60 597017.79,3272765.60 597026.54,3272772.46 597026.54,3272772.46 597032.08,3272776.83 597032.08,3272776.83 597043.57,3272785.87 597043.57,3272785.87 597049.99,3272790.88 597049.99,3272790.88 597059.71,3272798.64 597059.71,3272798.64 597070.21,3272806.97 597070.21,3272806.97 597075.46,3272811.22 597075.46,3272811.22 597085.83,3272819.51 597085.83,3272819.51 597091.10,3272823.81 597091.10,3272823.81 597101.71,3272832.34 597101.71,3272832.34 597113.38,3272841.80 597113.38,3272841.80 597118.69,3272846.07 597118.69,3272846.07 597124.35,3272850.69 597124.35,3272850.69 597134.54,3272858.81 597134.54,3272858.81 597139.93,3272863.11 597139.93,3272863.11 597150.68,3272871.63 597150.68,3272871.63 597155.84,3272875.78 597155.84,3272875.78 597164.69,3272882.75 597164.69,3272882.75 597175.20,3272890.94 597175.20,3272890.94 597182.54,3272896.78 597182.54,3272896.78 597190.36,3272902.90 597190.36,3272902.90 597200.63,3272910.93 597200.63,3272910.93 597205.91,3272914.96 597205.91,3272914.96 597216.11,3272922.82 597216.11,3272922.82 597221.28,3272926.76 597221.28,3272926.76 597231.75,3272934.73 597231.75,3272934.73 597242.41,3272942.74 597242.41,3272942.74 597253.08,3272950.71 597253.08,3272950.71 597258.43,3272954.68 597258.43,3272954.68 597269.23,3272962.68 597269.23,3272962.68 597274.56,3272966.63 597274.56,3272966.63 597279.85,3272970.55 597279.85,3272970.55 597285.12,3272974.40 597285.12,3272974.40 597289.38,3272977.54">
        <lane index="0" width="3.66" />
        <lane index="1" width="3.66" />
    </edge>
    <edge id="200.0" from="junction_70" to="node_200_end" numLanes="1" speed="13.89" type="town" shape="596701.85,3272517.68 596713.58,3272524.99 596713.58,3272524.99 596726.64,3272533.12 596726.64,3272533.12 596745.02,3272544.73 596745.02,3272544.73 596766.41,3272558.11 596766.41,3272558.11 596778.64,3272565.80 596778.64,3272565.80 596780.60,3272566.98">
        <lane index="0" width="3.66" />
    </edge>
    <edge id="208.0" from="junction_15" to="node_208_end" numLanes="3" speed="13.89" type="town" shape="597810.09,3273381.18 597823.03,3273391.46 597823.03,3273391.46 597834.29,3273400.42 597834.29,3273400.42 597848.45,3273411.60 597848.45,3273411.60 597861.67,3273422.12 597861.67,3273422.12 597869.41,3273428.29 597869.41,3273428.29 597881.57,3273437.84 597881.57,3273437.84 597888.02,3273443.02">
        <lane index="0" width="3.66" />
        <lane index="1" width="3.66" />
        <lane index="2" width="3.66" />
    </edge>
    <edge id="209.0" from="node_208_end" to="node_198_start" numLanes="3" speed="13.89" type="town" shape="597888.02,3273443.02 597896.27,3273449.63 597896.27,3273449.63 597920.46,3273468.84 597920.46,3273468.84 597936.99,3273482.01 597936.99,3273482.01 597958.36,3273499.07 597958.36,3273499.07 597977.72,3273514.52 597977.72,3273514.52 598005.72,3273536.86 598005.72,3273536.86 598026.27,3273553.16 598026.27,3273553.16 598044.64,3273567.85 598044.64,3273567.85 598055.00,3273576.12 598055.00,3273576.12 598065.16,3273584.21 598065.16,3273584.21 598078.64,3273594.94 598078.64,3273594.94 598093.03,3273606.39 598093.03,3273606.39 598104.41,3273615.46 598104.41,3273615.46 598121.86,3273629.26 598121.86,3273629.26 598139.02,3273642.92 598139.02,3273642.92 598152.67,3273653.85 598152.67,3273653.85 598166.24,3273664.69 598166.24,3273664.69 598180.06,3273675.66 598180.06,3273675.66 598196.15,3273688.48 598196.15,3273688.48 598208.61,3273698.41 598208.61,3273698.41 598220.47,3273707.90 598220.47,3273707.90 598235.21,3273719.60 598235.21,3273719.60 598246.41,3273728.54 598246.41,3273728.54 598255.77,3273735.98 598255.77,3273735.98 598267.44,3273745.25 598267.44,3273745.25 598277.21,3273753.01 598277.21,3273753.01 598288.08,3273761.65 598288.08,3273761.65 598301.58,3273772.46 598301.58,3273772.46 598312.26,3273780.98 598312.26,3273780.98 598321.69,3273788.48">
        <lane index="0" width="3.66" />
        <lane index="1" width="3.66" />
        <lane index="2" width="3.66" />
    </edge>
    <edge id="819.0" from="junction_72" to="node_819_end" numLanes="2" speed="13.89" type="town" shape="598670.96,3274083.16 598686.53,3274096.45 598686.53,3274096.45 598707.24,3274114.08 598707.24,3274114.08 598723.27,3274127.49 598723.27,3274127.49 598733.75,3274136.07 598733.75,3274136.07 598742.11,3274143.00 598742.11,3274143.00 598747.87,3274147.76">
        <lane index="0" width="3.66" />
        <lane index="1" width="3.66" />
    </edge>
    <edge id="820.0" from="node_819_end" to="node_820_end" numLanes="2" speed="13.89" type="town" shape="598747.87,3274147.76 598769.62,3274165.37 598769.62,3274165.37 598785.82,3274178.41 598785.82,3274178.41 598800.35,3274190.14 598800.35,3274190.14 598816.09,3274203.07 598816.09,3274203.07 598832.64,3274216.37 598832.64,3274216.37 598843.81,3274225.25 598843.81,3274225.25 598861.17,3274239.35 598861.17,3274239.35 598880.32,3274254.82 598880.32,3274254.82 598901.94,3274272.20 598901.94,3274272.20 598917.01,3274284.42 598917.01,3274284.42 598932.61,3274296.89 598932.61,3274296.89 598943.00,3274305.29 598943.00,3274305.29 598958.82,3274317.98 598958.82,3274317.98 598969.96,3274326.83 598969.96,3274326.83 598980.15,3274335.05 598980.15,3274335.05 598995.39,3274347.38 598995.39,3274347.38 599010.47,3274359.52 599010.47,3274359.52 599023.49,3274370.21 599023.49,3274370.21 599037.17,3274381.57 599037.17,3274381.57 599047.56,3274390.08 599047.56,3274390.08 599057.84,3274398.71 599057.84,3274398.71 599068.21,3274407.30 599068.21,3274407.30 599078.62,3274415.88 599078.62,3274415.88 599086.29,3274422.38">
        <lane index="0" width="3.66" />
        <lane index="1" width="3.66" />
    </edge>
    <edge id="206.0" from="node_820_end" to="junction_16" numLanes="2" speed="13.89" type="town" shape="599086.29,3274422.38 599098.63,3274432.13 599098.63,3274432.13 599113.76,3274444.54 599113.76,3274444.54 599128.72,3274456.57 599128.72,3274456.57 599144.54,3274469.41 599144.54,3274469.41 599160.45,3274481.86 599160.45,3274481.86 599170.87,3274490.28 599170.87,3274490.28 599186.36,3274502.62 599186.36,3274502.62 599201.61,3274515.04 599201.61,3274515.04 599216.75,3274527.48 599216.75,3274527.48 599233.06,3274540.50 599233.06,3274540.50 599245.91,3274550.68 599245.91,3274550.68 599257.81,3274559.91 599257.81,3274559.91 599276.12,3274573.62 599276.12,3274573.62 599291.73,3274584.95 599291.73,3274584.95 599307.52,3274596.08 599307.52,3274596.08 599325.03,3274608.08 599325.03,3274608.08 599342.29,3274619.38 599342.29,3274619.38 599357.23,3274628.84 599357.23,3274628.84 599367.20,3274634.95 599367.20,3274634.95 599379.38,3274642.50 599379.38,3274642.50 599394.10,3274651.45 599394.10,3274651.45 599405.01,3274657.87 599405.01,3274657.87 599417.26,3274664.97 599417.26,3274664.97 599432.10,3274673.27 599432.10,3274673.27 599446.33,3274680.90 599446.33,3274680.90 599459.72,3274687.99 599459.72,3274687.99 599472.04,3274694.41 599472.04,3274694.41 599483.75,3274700.27 599483.75,3274700.27 599503.06,3274709.70 599503.06,3274709.70 599521.80,3274718.29 599521.80,3274718.29 599541.22,3274727.26 599541.22,3274727.26 599563.10,3274736.70 599563.10,3274736.70 599577.61,3274742.74 599577.61,3274742.74 599597.14,3274750.33 599597.14,3274750.33 599610.54,3274755.48 599610.54,3274755.48 599628.34,3274761.93 599628.34,3274761.93 599640.70,3274766.23 599640.70,3274766.23 599659.31,3274772.21 599659.31,3274772.21 599678.48,3274777.94 599678.48,3274777.94 599693.92,3274782.04 599693.92,3274782.04 599715.09,3274787.29 599715.09,3274787.29 599727.37,3274790.26 599727.37,3274790.26 599743.39,3274793.75 599743.39,3274793.75 599762.24,3274797.56 599762.24,3274797.56 599775.53,3274800.03 599775.53,3274800.03 599786.02,3274801.96 599786.02,3274801.96 599796.63,3274803.73 599796.63,3274803.73 599819.39,3274807.18 599819.39,3274807.18 599831.21,3274809.01 599831.21,3274809.01 599840.08,3274810.03">
        <lane index="0" width="3.66" />
        <lane index="1" width="3.66" />
    </edge>
    <edge id="176.0" from="node_176_start" to="junction_13" numLanes="1" speed="13.89" type="town" shape="595729.43,3271873.45 595762.91,3271899.19 595762.91,3271899.19 595786.52,3271915.90 595786.52,3271915.90 595808.73,3271931.39 595808.73,3271931.39 595829.67,3271946.07 595829.67,3271946.07 595841.44,3271954.37 595841.44,3271954.37 595845.57,3271957.66 595845.57,3271957.66 595868.88,3271975.90 595868.88,3271975.90 595891.24,3271993.30 595891.24,3271993.30 595912.27,3272009.76 595912.27,3272009.76 595934.24,3272026.73 595934.24,3272026.73 595950.43,3272039.38 595950.43,3272039.38 595973.16,3272056.84">
        <lane index="0" width="3.66" />
    </edge>
</edges>