<?xml version="1.0" encoding="UTF-8"?>

<!-- generated on 2025-10-19 17:35:16 by Eclipse SUMO netconvert Version 1.23.1
<netconvertConfiguration xmlns:xsi="http://www.w3.org/2001/XMLSchema-instance" xsi:noNamespaceSchemaLocation="http://sumo.dlr.de/xsd/netconvertConfiguration.xsd">

    <input>
        <node-files value="/home/sdai/harry/TeraSim/jupiter/eb/jupiter_eb_tiles/tile_0021/tile_0021.nod.xml"/>
        <edge-files value="/home/sdai/harry/TeraSim/jupiter/eb/jupiter_eb_tiles/tile_0021/tile_0021.edg.xml"/>
        <connection-files value="/home/sdai/harry/TeraSim/jupiter/eb/jupiter_eb_tiles/tile_0021/tile_0021.con.xml"/>
    </input>

    <output>
        <output-file value="/home/sdai/harry/TeraSim/jupiter/eb/jupiter_eb_tiles/tile_0021/tile_0021.net.xml"/>
        <output.street-names value="true"/>
        <output.original-names value="true"/>
    </output>

    <processing>
        <geometry.remove value="false"/>
        <geometry.min-dist value="0.5"/>
        <edges.join value="false"/>
    </processing>

    <junctions>
        <no-internal-links value="false"/>
        <no-turnarounds value="true"/>
        <junctions.join value="true"/>
        <junctions.join-dist value="10"/>
        <junctions.corner-detail value="5"/>
        <junctions.internal-link-detail value="5"/>
        <junctions.limit-turn-speed value="5.5"/>
        <rectangular-lane-cut value="true"/>
        <check-lane-foes.all value="true"/>
    </junctions>

</netconvertConfiguration>
-->

<net version="1.20" junctionCornerDetail="5" junctionLinkDetail="5" rectangularLaneCut="true" limitTurnSpeed="5.50" checkLaneFoesAll="1" xmlns:xsi="http://www.w3.org/2001/XMLSchema-instance" xsi:noNamespaceSchemaLocation="http://sumo.dlr.de/xsd/net_file.xsd">

    <location netOffset="-595729.43,-3271873.45" convBoundary="0.00,0.00,4110.65,2936.58" origBoundary="0.00,0.00,599840.08,3274810.03" projParameter="!"/>

    <edge id=":junction_13_0" function="internal">
        <lane id=":junction_13_0_0" index="0" speed="13.89" length="27.48" width="3.66" shape="244.85,181.94 265.35,198.74"/>
        <lane id=":junction_13_0_1" index="1" speed="13.89" length="27.48" width="3.66" shape="244.85,181.94 247.81,185.29 251.32,190.25 256.22,196.02 263.36,201.81"/>
        <lane id=":junction_13_0_2" index="2" speed="13.89" length="27.48" width="3.66" shape="244.85,181.94 247.43,185.73 250.15,191.67 254.34,198.48 261.37,204.88"/>
    </edge>
    <edge id=":junction_15_0" function="internal">
        <lane id=":junction_15_0_0" index="0" speed="13.89" length="275.79" width="3.66" shape="1650.81,1162.41 1871.79,1327.62"/>
        <lane id=":junction_15_0_1" index="1" speed="13.89" length="275.79" width="3.66" shape="1648.66,1165.38 1869.45,1330.43"/>
    </edge>
    <edge id=":junction_70_0" function="internal">
        <lane id=":junction_70_0_0" index="0" speed="13.89" length="93.79" width="3.66" shape="893.74,593.15 973.39,642.68"/>
    </edge>
    <edge id=":junction_70_1" function="internal">
        <lane id=":junction_70_1_0" index="0" speed="13.89" length="94.08" width="3.66" shape="893.74,593.15 971.63,646.00"/>
        <lane id=":junction_70_1_1" index="1" speed="13.89" length="94.08" width="3.66" shape="891.73,596.21 969.55,649.01"/>
    </edge>
    <edge id=":junction_72_0" function="internal">
        <lane id=":junction_72_0_0" index="0" speed="13.89" length="169.93" width="3.66" shape="2687.78,1983.93 2712.59,2003.35 2756.15,2037.63 2798.86,2071.47 2821.10,2089.56"/>
        <lane id=":junction_72_0_1" index="1" speed="13.89" length="169.93" width="3.66" shape="2685.54,1986.82 2710.31,2006.21 2753.78,2040.41 2796.40,2074.17 2818.60,2092.23"/>
    </edge>
    <edge id=":node_173_end_0" function="internal">
        <lane id=":node_173_end_0_0" index="0" speed="13.89" length="8.11" width="3.66" shape="495.10,347.06 501.87,351.54"/>
    </edge>
    <edge id=":node_173_end_1" function="internal">
        <lane id=":node_173_end_1_0" index="0" speed="13.89" length="8.00" width="3.66" shape="495.06,347.34 501.87,351.54"/>
        <lane id=":node_173_end_1_1" index="1" speed="13.89" length="8.00" width="3.66" shape="493.14,350.46 499.95,354.65"/>
    </edge>
    <edge id=":node_173_start_0" function="internal">
        <lane id=":node_173_start_0_0" index="0" speed="13.89" length="3.46" width="3.66" shape="440.20,308.76 443.06,310.71"/>
    </edge>
    <edge id=":node_173_start_1" function="internal">
        <lane id=":node_173_start_1_0" index="0" speed="13.89" length="3.00" width="3.66" shape="438.26,311.86 440.81,313.45"/>
        <lane id=":node_173_start_1_1" index="1" speed="13.89" length="3.00" width="3.66" shape="436.32,314.96 438.87,316.55"/>
    </edge>
    <edge id=":node_197_start_0" function="internal">
        <lane id=":node_197_start_0_0" index="0" speed="13.89" length="3.00" width="3.66" shape="1562.00,1098.78 1564.41,1100.55"/>
        <lane id=":node_197_start_0_1" index="1" speed="13.89" length="3.00" width="3.66" shape="1559.83,1101.72 1562.25,1103.50"/>
    </edge>
    <edge id=":node_198_start_0" function="internal">
        <lane id=":node_198_start_0_0" index="0" speed="13.89" length="0.30" width="3.66" shape="2597.84,1907.77 2598.07,1907.96"/>
        <lane id=":node_198_start_0_1" index="1" speed="13.89" length="0.30" width="3.66" shape="2595.56,1910.64 2595.80,1910.83"/>
        <lane id=":node_198_start_0_2" index="2" speed="13.89" length="0.30" width="3.66" shape="2593.28,1913.50 2593.52,1913.69"/>
    </edge>
    <edge id=":node_208_end_0" function="internal">
        <lane id=":node_208_end_0_0" index="0" speed="13.89" length="0.30" width="3.66" shape="2164.20,1562.34 2164.43,1562.53"/>
        <lane id=":node_208_end_0_1" index="1" speed="13.89" length="0.30" width="3.66" shape="2161.91,1565.19 2162.14,1565.38"/>
        <lane id=":node_208_end_0_2" index="2" speed="13.89" length="0.30" width="3.66" shape="2159.62,1568.05 2159.86,1568.24"/>
    </edge>
    <edge id=":node_819_end_0" function="internal">
        <lane id=":node_819_end_0_0" index="0" speed="13.89" length="0.29" width="3.66" shape="3021.81,2269.97 3022.03,2270.15"/>
        <lane id=":node_819_end_0_1" index="1" speed="13.89" length="0.29" width="3.66" shape="3019.48,2272.79 3019.72,2272.99"/>
    </edge>
    <edge id=":node_820_end_0" function="internal">
        <lane id=":node_820_end_0_0" index="0" speed="13.89" length="0.24" width="3.66" shape="3360.27,2544.62 3360.41,2544.74"/>
        <lane id=":node_820_end_0_1" index="1" speed="13.89" length="0.24" width="3.66" shape="3357.91,2547.42 3358.14,2547.61"/>
    </edge>

    <edge id="173.0" from="node_173_start" to="node_173_end" priority="-1" type="town" shape="436.62,317.31 451.14,326.39 474.34,340.72 491.24,351.44 495.62,354.13">
        <lane id="173.0_0" index="0" speed="13.89" length="63.98" width="3.66" shape="440.81,313.45 454.04,321.73 477.26,336.07 494.17,346.80 495.06,347.34"/>
        <lane id="173.0_1" index="1" speed="13.89" length="63.98" width="3.66" shape="438.87,316.55 452.11,324.84 475.31,339.17 492.22,349.89 493.14,350.46"/>
    </edge>
    <edge id="176.0" from="node_176_start" to="junction_13" priority="-1" type="town" shape="0.00,0.00 33.48,25.74 57.09,42.45 79.30,57.94 100.24,72.62 112.01,80.92 116.14,84.21 139.45,102.45 161.81,119.85 182.84,136.31 204.81,153.28 221.00,165.93 243.73,183.39">
        <lane id="176.0_0" index="0" speed="13.89" length="305.09" width="3.66" shape="1.12,-1.45 34.57,24.27 58.14,40.95 80.35,56.44 101.29,71.12 113.11,79.46 117.28,82.77 140.58,101.01 162.94,118.41 183.97,134.87 205.93,151.83 222.12,164.48 244.85,181.94"/>
    </edge>
    <edge id="177.0" from="node_173_start" to="node_173_end" priority="-1" type="town" shape="440.50,311.16 497.57,351.02">
        <lane id="177.0_0" index="0" speed="13.89" length="63.48" width="3.66" shape="443.06,310.71 495.10,347.06"/>
    </edge>
    <edge id="185.0" from="node_173_end" to="junction_70" priority="-1" type="town" shape="495.62,354.13 503.07,358.73 536.95,379.82 567.33,398.84 591.28,413.77 613.24,427.30 623.25,433.49 630.98,438.41 642.22,445.21 653.73,452.16 665.28,459.06 677.37,466.31 683.27,469.79 694.88,476.56 701.81,480.61 713.28,487.28 729.44,496.81 741.30,503.89 752.83,510.76 763.90,517.50 774.81,524.14 780.31,527.49 791.21,534.19 801.75,540.71 812.25,547.28 818.62,551.25 830.06,558.50 841.32,565.60 858.36,576.55 869.63,583.89 881.06,591.38 890.72,597.74">
        <lane id="185.0_0" index="0" speed="13.89" length="460.36" width="3.66" shape="501.87,351.54 505.96,354.06 539.86,375.16 570.24,394.18 594.17,409.10 616.12,422.63 626.17,428.84 633.88,433.75 645.06,440.51 656.56,447.45 668.10,454.35 680.18,461.59 686.05,465.05 697.65,471.82 704.58,475.87 716.06,482.54 732.24,492.09 744.11,499.17 755.66,506.06 766.76,512.81 777.67,519.45 783.18,522.81 794.09,529.52 804.65,536.05 815.16,542.62 821.54,546.60 833.00,553.86 844.27,560.97 861.34,571.94 872.63,579.29 884.08,586.79 893.74,593.15"/>
        <lane id="185.0_1" index="1" speed="13.89" length="460.36" width="3.66" shape="499.95,354.65 504.04,357.17 537.92,378.27 568.30,397.29 592.25,412.21 614.20,425.74 624.22,431.94 631.95,436.86 643.17,443.64 654.67,450.59 666.22,457.49 678.31,464.74 684.20,468.21 695.80,474.98 702.73,479.03 714.21,485.70 730.38,495.24 742.24,502.32 753.78,509.19 764.85,515.94 775.76,522.58 781.27,525.93 792.17,532.63 802.72,539.16 813.22,545.73 819.60,549.70 831.04,556.95 842.30,564.06 859.36,575.01 870.63,582.36 882.07,589.85 891.73,596.21"/>
    </edge>
    <edge id="193.0" from="junction_13" to="node_173_start" priority="-1" type="town" shape="260.37,206.42 273.91,215.20 290.57,225.92 307.16,236.47 318.14,243.41 346.28,260.94 364.25,272.10 386.03,285.65 412.73,302.36 436.62,317.31">
        <lane id="193.0_0" index="0" speed="13.89" length="206.65" width="3.66" shape="265.35,198.74 278.88,207.51 295.50,218.21 312.06,228.74 323.01,235.66 351.12,253.17 369.08,264.33 390.88,277.89 417.59,294.60 440.20,308.76"/>
        <lane id="193.0_1" index="1" speed="13.89" length="206.65" width="3.66" shape="263.36,201.81 276.89,210.59 293.53,221.30 310.10,231.83 321.06,238.76 349.18,256.28 367.15,267.44 388.94,280.99 415.64,297.71 438.26,311.86"/>
        <lane id="193.0_2" index="2" speed="13.89" length="206.65" width="3.66" shape="261.37,204.88 274.90,213.66 291.56,224.38 308.14,234.92 319.11,241.86 347.25,259.39 365.22,270.55 387.00,284.10 413.70,300.81 436.32,314.96"/>
    </edge>
    <edge id="197.0" from="node_197_start" to="junction_15" priority="-1" type="town" shape="1559.95,1104.09 1571.76,1112.76 1577.12,1116.58 1588.15,1124.42 1599.13,1132.20 1610.33,1140.12 1611.94,1141.27 1621.64,1148.16 1633.01,1156.32 1643.95,1164.23 1647.59,1166.86">
        <lane id="197.0_0" index="0" disallow="all" speed="13.89" length="106.26" width="3.66" shape="1566.58,1097.60 1577.14,1105.36 1582.43,1109.12 1593.45,1116.96 1604.42,1124.73 1615.62,1132.65 1617.24,1133.81 1626.96,1140.71 1638.36,1148.90 1649.31,1156.81 1652.95,1159.44" type="shoulder"/>
        <lane id="197.0_1" index="1" speed="13.89" length="106.26" width="3.66" shape="1564.41,1100.55 1574.99,1108.32 1580.30,1112.11 1591.33,1119.94 1602.30,1127.72 1613.50,1135.64 1615.12,1136.80 1624.83,1143.69 1636.22,1151.87 1647.17,1159.78 1650.81,1162.41"/>
        <lane id="197.0_2" index="2" speed="13.89" length="106.26" width="3.66" shape="1562.25,1103.50 1572.84,1111.28 1578.18,1115.09 1589.21,1122.93 1600.19,1130.71 1611.39,1138.63 1613.00,1139.78 1622.71,1146.67 1634.08,1154.84 1645.02,1162.75 1648.66,1165.38"/>
    </edge>
    <edge id="198.0" from="node_198_start" to="junction_72" priority="-1" type="town" shape="2592.26,1915.03 2593.04,1915.65 2604.44,1924.78 2615.23,1933.38 2626.58,1942.37 2635.31,1949.27 2646.07,1957.83 2653.59,1963.84 2663.12,1971.43 2671.51,1978.10 2679.02,1984.09 2684.42,1988.27">
        <lane id="198.0_0" index="0" speed="13.89" length="117.50" width="3.66" shape="2598.07,1907.96 2598.76,1908.51 2610.15,1917.63 2620.92,1926.22 2632.26,1935.19 2641.00,1942.10 2651.78,1950.67 2659.30,1956.69 2668.82,1964.27 2677.21,1970.94 2684.68,1976.90 2690.02,1981.03"/>
        <lane id="198.0_1" index="1" speed="13.89" length="117.50" width="3.66" shape="2595.80,1910.83 2596.47,1911.36 2607.87,1920.49 2618.65,1929.08 2629.99,1938.06 2638.72,1944.97 2649.49,1953.54 2657.02,1959.55 2666.54,1967.13 2674.93,1973.81 2682.42,1979.78 2687.78,1983.93"/>
        <lane id="198.0_2" index="2" speed="13.89" length="117.50" width="3.66" shape="2593.52,1913.69 2594.19,1914.22 2605.58,1923.35 2616.37,1931.95 2627.72,1940.93 2636.45,1947.84 2647.21,1956.40 2654.73,1962.41 2664.26,1970.00 2672.65,1976.67 2680.15,1982.65 2685.54,1986.82"/>
    </edge>
    <edge id="199.0" from="junction_70" to="node_197_start" priority="-1" type="town" shape="968.28,650.36 977.36,656.65 988.80,664.70 1000.14,672.72 1011.30,680.72 1022.78,688.96 1034.31,697.34 1043.54,704.09 1055.79,713.10 1066.51,721.05 1077.57,729.31 1088.59,737.58 1093.93,741.60 1112.13,755.48 1122.59,763.57 1131.37,770.41 1142.30,778.93 1153.15,787.42 1163.74,795.86 1174.42,804.36 1184.02,811.89 1194.52,820.06 1205.13,828.32 1215.76,836.58 1226.65,844.95 1237.85,853.43 1248.86,861.74 1259.66,869.98 1270.41,878.25 1275.77,882.33 1288.36,892.15 1297.11,899.01 1302.65,903.38 1314.14,912.42 1320.56,917.43 1330.28,925.19 1340.78,933.52 1346.03,937.77 1356.40,946.06 1361.67,950.36 1372.28,958.89 1383.95,968.35 1389.26,972.62 1394.92,977.24 1405.11,985.36 1410.50,989.66 1421.25,998.18 1426.41,1002.33 1435.26,1009.30 1445.77,1017.49 1453.11,1023.33 1460.93,1029.45 1471.20,1037.48 1476.48,1041.51 1486.68,1049.37 1491.85,1053.31 1502.32,1061.28 1512.98,1069.29 1523.65,1077.26 1529.00,1081.23 1539.80,1089.23 1545.13,1093.18 1550.42,1097.10 1555.69,1100.95 1559.95,1104.09">
        <lane id="199.0_0" index="0" speed="13.89" length="744.07" width="3.66" shape="971.63,646.00 980.50,652.15 991.97,660.21 1003.33,668.25 1014.50,676.26 1026.00,684.51 1037.55,692.90 1046.79,699.66 1059.05,708.68 1069.79,716.65 1080.86,724.92 1091.89,733.19 1097.25,737.22 1115.47,751.12 1125.96,759.23 1134.75,766.08 1145.68,774.60 1156.55,783.11 1167.16,791.57 1177.83,800.05 1187.40,807.56 1197.89,815.73 1208.50,823.99 1219.12,832.24 1229.98,840.59 1241.16,849.05 1252.18,857.37 1263.00,865.62 1273.75,873.89 1279.12,877.98 1291.74,887.82 1300.50,894.69 1306.05,899.07 1317.53,908.10 1323.96,913.12 1333.70,920.89 1344.21,929.23 1349.47,933.49 1359.84,941.78 1365.12,946.09 1375.73,954.62 1387.40,964.08 1392.72,968.35 1398.37,972.97 1408.53,981.07 1413.92,985.36 1424.67,993.89 1429.83,998.03 1438.65,1004.98 1449.16,1013.17 1456.51,1019.02 1464.31,1025.13 1474.57,1033.14 1479.83,1037.16 1490.03,1045.02 1495.18,1048.94 1505.63,1056.90 1516.27,1064.90 1526.93,1072.86 1532.27,1076.82 1543.07,1084.82 1548.40,1088.77 1553.68,1092.68 1558.94,1096.52 1562.00,1098.78"/>
        <lane id="199.0_1" index="1" speed="13.89" length="744.07" width="3.66" shape="969.55,649.01 978.41,655.15 989.86,663.20 1001.20,671.23 1012.37,679.23 1023.85,687.48 1035.39,695.86 1044.62,702.61 1056.88,711.63 1067.60,719.58 1078.67,727.85 1089.69,736.12 1095.04,740.14 1113.25,754.03 1123.71,762.12 1132.50,768.97 1143.43,777.49 1154.29,785.98 1164.88,794.43 1175.56,802.92 1185.15,810.45 1195.65,818.62 1206.26,826.88 1216.88,835.13 1227.76,843.50 1238.96,851.97 1249.97,860.28 1260.78,868.53 1271.53,876.80 1276.89,880.88 1289.49,890.71 1298.24,897.57 1303.78,901.94 1315.27,910.98 1321.70,915.99 1331.42,923.76 1341.92,932.09 1347.18,936.34 1357.55,944.63 1362.82,948.94 1373.43,957.47 1385.10,966.93 1390.41,971.20 1396.07,975.82 1406.25,983.93 1411.64,988.23 1422.39,996.75 1427.55,1000.90 1436.39,1007.86 1446.90,1016.05 1454.25,1021.89 1462.06,1028.01 1472.32,1036.03 1477.60,1040.06 1487.80,1047.92 1492.96,1051.85 1503.43,1059.82 1514.08,1067.83 1524.75,1075.79 1530.09,1079.76 1540.89,1087.76 1546.22,1091.71 1551.51,1095.63 1556.77,1099.47 1559.83,1101.72"/>
    </edge>
    <edge id="200.0" from="junction_70" to="node_200_end" priority="-1" type="town" shape="972.42,644.23 984.15,651.54 997.21,659.67 1015.59,671.28 1036.98,684.66 1049.21,692.35 1051.17,693.53">
        <lane id="200.0_0" index="0" speed="13.89" length="92.88" width="3.66" shape="973.39,642.68 985.12,649.99 998.18,658.12 1016.57,669.73 1037.95,683.11 1050.18,690.80 1052.12,691.96"/>
    </edge>
    <edge id="206.0" from="node_820_end" to="junction_16" priority="-1" type="town" shape="3356.86,2548.93 3369.20,2558.68 3384.33,2571.09 3399.29,2583.12 3415.11,2595.96 3431.02,2608.41 3441.44,2616.83 3456.93,2629.17 3472.18,2641.59 3487.32,2654.03 3503.63,2667.05 3516.48,2677.23 3528.38,2686.46 3546.69,2700.17 3562.30,2711.50 3578.09,2722.63 3595.60,2734.63 3612.86,2745.93 3627.80,2755.39 3637.77,2761.50 3649.95,2769.05 3664.67,2778.00 3675.58,2784.42 3687.83,2791.52 3702.67,2799.82 3716.90,2807.45 3730.29,2814.54 3742.61,2820.96 3754.32,2826.82 3773.63,2836.25 3792.37,2844.84 3811.79,2853.81 3833.67,2863.25 3848.18,2869.29 3867.71,2876.88 3881.11,2882.03 3898.91,2888.48 3911.27,2892.78 3929.88,2898.76 3949.05,2904.49 3964.49,2908.59 3985.66,2913.84 3997.94,2916.81 4013.96,2920.30 4032.81,2924.11 4046.10,2926.58 4056.59,2928.51 4067.20,2930.28 4089.96,2933.73 4101.78,2935.56 4110.65,2936.58">
        <lane id="206.0_0" index="0" speed="13.89" length="858.85" width="3.66" shape="3360.41,2544.74 3372.64,2554.40 3387.79,2566.83 3402.74,2578.85 3418.53,2591.67 3434.44,2604.11 3444.88,2612.55 3460.38,2624.89 3475.66,2637.34 3490.78,2649.76 3507.05,2662.75 3519.87,2672.91 3531.71,2682.09 3549.95,2695.75 3565.50,2707.03 3581.23,2718.12 3598.66,2730.07 3615.83,2741.31 3630.71,2750.73 3640.65,2756.83 3652.82,2764.37 3667.49,2773.29 3678.35,2779.68 3690.55,2786.75 3705.31,2795.00 3719.48,2802.61 3732.85,2809.68 3745.11,2816.07 3756.76,2821.90 3775.98,2831.29 3794.67,2839.85 3814.03,2848.80 3835.81,2858.20 3850.23,2864.20 3869.69,2871.76 3883.03,2876.89 3900.75,2883.31 3913.01,2887.57 3931.51,2893.52 3950.54,2899.21 3965.86,2903.27 3986.97,2908.51 3999.17,2911.46 4015.09,2914.93 4033.86,2918.72 4047.10,2921.18 4057.54,2923.10 4068.07,2924.86 4090.79,2928.30 4102.52,2930.12 4111.28,2931.13"/>
        <lane id="206.0_1" index="1" speed="13.89" length="858.85" width="3.66" shape="3358.14,2547.61 3370.35,2557.25 3385.49,2569.67 3400.44,2581.70 3416.25,2594.53 3432.16,2606.98 3442.59,2615.40 3458.08,2627.74 3473.34,2640.17 3488.47,2652.61 3504.77,2665.62 3517.61,2675.79 3529.49,2685.00 3547.78,2698.70 3563.37,2710.01 3579.14,2721.13 3596.62,2733.11 3613.85,2744.39 3628.77,2753.84 3638.73,2759.94 3650.91,2767.49 3665.61,2776.43 3676.50,2782.84 3688.74,2789.93 3703.55,2798.21 3717.76,2805.84 3731.14,2812.92 3743.44,2819.33 3755.13,2825.18 3774.41,2834.60 3793.14,2843.18 3812.54,2852.14 3834.39,2861.57 3848.87,2867.59 3868.37,2875.17 3881.75,2880.32 3899.52,2886.76 3911.85,2891.04 3930.42,2897.01 3949.55,2902.73 3964.95,2906.82 3986.10,2912.06 3998.35,2915.03 4014.34,2918.51 4033.16,2922.31 4046.44,2924.78 4056.91,2926.71 4067.49,2928.47 4090.24,2931.92 4102.03,2933.75 4110.86,2934.76"/>
    </edge>
    <edge id="208.0" from="junction_15" to="node_208_end" priority="-1" type="town" shape="1868.28,1331.84 2080.66,1507.73 2093.60,1518.01 2104.86,1526.97 2119.02,1538.15 2132.24,1548.67 2139.98,1554.84 2152.14,1564.39 2158.59,1569.57">
        <lane id="208.0_0" index="0" speed="13.89" length="375.00" width="3.66" shape="1874.12,1324.80 2086.43,1500.62 2099.30,1510.85 2110.54,1519.80 2124.71,1530.98 2137.94,1541.51 2145.66,1547.66 2157.82,1557.22 2164.20,1562.34"/>
        <lane id="208.0_1" index="1" speed="13.89" length="375.00" width="3.66" shape="1871.79,1327.62 2084.12,1503.47 2097.02,1513.71 2108.27,1522.67 2122.43,1533.85 2135.66,1544.38 2143.39,1550.53 2155.55,1560.09 2161.91,1565.19"/>
        <lane id="208.0_2" index="2" speed="13.89" length="375.00" width="3.66" shape="1869.45,1330.43 2081.81,1506.31 2094.74,1516.58 2106.00,1525.54 2120.16,1536.72 2133.38,1547.24 2141.12,1553.40 2153.28,1562.96 2159.62,1568.05"/>
    </edge>
    <edge id="209.0" from="node_208_end" to="node_198_start" priority="-1" type="town" shape="2158.59,1569.57 2166.84,1576.18 2191.03,1595.39 2207.56,1608.56 2228.93,1625.62 2248.29,1641.07 2276.29,1663.41 2296.84,1679.71 2315.21,1694.40 2325.57,1702.67 2335.73,1710.76 2349.21,1721.49 2363.60,1732.94 2374.98,1742.01 2392.43,1755.81 2409.59,1769.47 2423.24,1780.40 2436.81,1791.24 2450.63,1802.21 2466.72,1815.03 2479.18,1824.96 2491.04,1834.45 2505.78,1846.15 2516.98,1855.09 2526.34,1862.53 2538.01,1871.80 2547.78,1879.56 2558.65,1888.20 2572.15,1899.01 2582.83,1907.53 2592.26,1915.03">
        <lane id="209.0_0" index="0" speed="13.89" length="554.12" width="3.66" shape="2164.43,1562.53 2172.55,1569.03 2196.73,1588.23 2213.27,1601.41 2234.64,1618.47 2254.00,1633.92 2281.99,1656.25 2302.54,1672.55 2320.92,1687.25 2331.28,1695.52 2341.43,1703.60 2354.91,1714.33 2369.30,1725.78 2380.67,1734.84 2398.12,1748.64 2415.30,1762.32 2428.96,1773.25 2442.51,1784.08 2456.33,1795.05 2472.42,1807.87 2484.89,1817.81 2496.74,1827.29 2511.48,1838.99 2522.68,1847.93 2532.03,1855.37 2543.70,1864.64 2553.47,1872.40 2564.36,1881.05 2577.87,1891.86 2588.53,1900.37 2597.84,1907.77"/>
        <lane id="209.0_1" index="1" speed="13.89" length="554.12" width="3.66" shape="2162.14,1565.38 2170.27,1571.89 2194.45,1591.09 2210.99,1604.27 2232.36,1621.33 2251.72,1636.78 2279.71,1659.11 2300.26,1675.42 2318.64,1690.11 2328.99,1698.38 2339.15,1706.46 2352.63,1717.19 2367.02,1728.65 2378.39,1737.71 2395.84,1751.51 2413.02,1765.18 2426.67,1776.11 2440.23,1786.95 2454.05,1797.91 2470.14,1810.74 2482.61,1820.67 2494.46,1830.16 2509.20,1841.85 2520.40,1850.80 2529.76,1858.23 2541.43,1867.50 2551.20,1875.26 2562.08,1883.91 2575.58,1894.72 2586.25,1903.24 2595.56,1910.64"/>
        <lane id="209.0_2" index="2" speed="13.89" length="554.12" width="3.66" shape="2159.86,1568.24 2167.98,1574.75 2192.17,1593.96 2208.70,1607.13 2230.07,1624.19 2249.43,1639.64 2277.43,1661.98 2297.98,1678.28 2316.35,1692.97 2326.71,1701.24 2336.87,1709.33 2350.35,1720.06 2364.74,1731.51 2376.12,1740.58 2393.57,1754.38 2410.73,1768.04 2424.39,1778.97 2437.95,1789.81 2451.77,1800.78 2467.86,1813.60 2480.32,1823.53 2492.18,1833.02 2506.92,1844.72 2518.12,1853.66 2527.48,1861.10 2539.15,1870.37 2548.92,1878.13 2559.79,1886.77 2573.29,1897.58 2583.97,1906.10 2593.28,1913.50"/>
    </edge>
    <edge id="819.0" from="junction_72" to="node_819_end" priority="-1" type="town" shape="2817.35,2093.57 2941.53,2209.71 2957.10,2223.00 2977.81,2240.63 2993.84,2254.04 3004.32,2262.62 3012.68,2269.55 3018.44,2274.31">
        <lane id="819.0_0" index="0" speed="13.89" length="270.08" width="3.66" shape="2821.10,2089.56 2945.19,2205.62 2960.66,2218.82 2981.35,2236.43 2997.34,2249.81 3007.81,2258.38 3016.18,2265.32 3021.81,2269.97"/>
        <lane id="819.0_1" index="1" speed="13.89" length="270.08" width="3.66" shape="2818.60,2092.23 2942.75,2208.35 2958.29,2221.61 2978.99,2239.23 2995.01,2252.63 3005.49,2261.21 3013.85,2268.14 3019.48,2272.79"/>
    </edge>
    <edge id="820.0" from="node_819_end" to="node_820_end" priority="-1" type="town" shape="3018.44,2274.31 3040.19,2291.92 3056.39,2304.96 3070.92,2316.69 3086.66,2329.62 3103.21,2342.92 3114.38,2351.80 3131.74,2365.90 3150.89,2381.37 3172.51,2398.75 3187.58,2410.97 3203.18,2423.44 3213.57,2431.84 3229.39,2444.53 3240.53,2453.38 3250.72,2461.60 3265.96,2473.93 3281.04,2486.07 3294.06,2496.76 3307.74,2508.12 3318.13,2516.63 3328.41,2525.26 3338.78,2533.85 3349.19,2542.43 3356.86,2548.93">
        <lane id="820.0_0" index="0" speed="13.89" length="435.57" width="3.66" shape="3022.03,2270.15 3043.64,2287.65 3059.84,2300.69 3074.39,2312.43 3090.12,2325.36 3106.64,2338.63 3117.82,2347.52 3135.20,2361.63 3154.34,2377.10 3175.96,2394.48 3191.02,2406.69 3206.62,2419.16 3217.01,2427.56 3232.82,2440.24 3243.96,2449.09 3254.17,2457.33 3269.41,2469.66 3284.51,2481.81 3297.56,2492.53 3311.24,2503.89 3321.64,2512.40 3331.93,2521.04 3342.28,2529.62 3352.71,2538.22 3360.27,2544.62"/>
        <lane id="820.0_1" index="1" speed="13.89" length="435.57" width="3.66" shape="3019.72,2272.99 3041.34,2290.50 3057.54,2303.54 3072.08,2315.27 3087.82,2328.20 3104.36,2341.49 3115.53,2350.37 3132.89,2364.48 3152.04,2379.95 3173.66,2397.33 3188.73,2409.54 3204.33,2422.01 3214.72,2430.41 3230.53,2443.10 3241.68,2451.95 3251.87,2460.18 3267.11,2472.51 3282.20,2484.65 3295.23,2495.35 3308.91,2506.71 3319.30,2515.22 3329.58,2523.85 3339.95,2532.44 3350.37,2541.03 3357.91,2547.42"/>
    </edge>

    <junction id="junction_13" type="priority" x="247.39" y="193.83" incLanes="176.0_0" intLanes=":junction_13_0_0 :junction_13_0_1 :junction_13_0_2" shape="260.37,206.42 266.35,197.21 261.72,194.04 258.47,191.47 255.93,189.17 253.43,186.80 250.33,184.02 245.96,180.49 243.73,183.39 248.05,187.56 250.40,191.49 251.81,195.25 253.26,198.94 255.78,202.63">
        <request index="0" response="000" foes="000" cont="0"/>
        <request index="1" response="000" foes="000" cont="0"/>
        <request index="2" response="000" foes="000" cont="0"/>
    </junction>
    <junction id="junction_15" type="priority" x="1864.13" y="1337.29" incLanes="197.0_0 197.0_1 197.0_2" intLanes=":junction_15_0_0 :junction_15_0_1" shape="1868.28,1331.84 1875.29,1323.39 1651.88,1160.93 1647.59,1166.86">
        <request index="0" response="00" foes="00" cont="0"/>
        <request index="1" response="00" foes="00" cont="0"/>
    </junction>
    <junction id="junction_16" type="dead_end" x="4110.65" y="2936.58" incLanes="206.0_0 206.0_1" intLanes="" shape="4111.49,2929.31 4110.65,2936.58"/>
    <junction id="junction_70" type="priority" x="943.81" y="630.77" incLanes="185.0_0 185.0_1" intLanes=":junction_70_0_0 :junction_70_1_0 :junction_70_1_1" shape="968.51,650.51 974.36,641.12 894.75,591.63 890.72,597.74">
        <request index="0" response="000" foes="000" cont="0"/>
        <request index="1" response="000" foes="000" cont="0"/>
        <request index="2" response="000" foes="000" cont="0"/>
    </junction>
    <junction id="junction_72" type="priority" x="2812.98" y="2098.99" incLanes="198.0_0 198.0_1 198.0_2" intLanes=":junction_72_0_0 :junction_72_0_1" shape="2817.35,2093.57 2822.35,2088.22 2807.67,2075.31 2784.62,2055.87 2757.32,2033.24 2729.89,2010.76 2706.46,1991.76 2691.14,1979.59 2684.42,1988.27 2699.87,2000.20 2723.62,2018.58 2751.45,2040.26 2779.17,2062.08 2802.54,2080.90">
        <request index="0" response="00" foes="00" cont="0"/>
        <request index="1" response="00" foes="00" cont="0"/>
    </junction>
    <junction id="node_173_end" type="priority" x="495.62" y="354.13" incLanes="177.0_0 173.0_0 173.0_1" intLanes=":node_173_end_0_0 :node_173_end_1_0 :node_173_end_1_1" shape="498.99,356.21 502.83,349.98 496.15,345.56 492.18,352.02">
        <request index="0" response="010" foes="010" cont="0"/>
        <request index="1" response="000" foes="001" cont="0"/>
        <request index="2" response="000" foes="000" cont="0"/>
    </junction>
    <junction id="node_173_start" type="priority" x="436.62" y="317.31" incLanes="193.0_0 193.0_1 193.0_2" intLanes=":node_173_start_0_0 :node_173_start_1_0 :node_173_start_1_1" shape="437.90,318.11 444.11,309.21 441.17,307.21 435.35,316.51">
        <request index="0" response="000" foes="000" cont="0"/>
        <request index="1" response="000" foes="000" cont="0"/>
        <request index="2" response="000" foes="000" cont="0"/>
    </junction>
    <junction id="node_176_start" type="dead_end" x="0.00" y="0.00" incLanes="" intLanes="" shape="0.00,-0.00 2.23,-2.90"/>
    <junction id="node_197_start" type="priority" x="1559.96" y="1104.09" incLanes="199.0_0 199.0_1" intLanes=":node_197_start_0_0 :node_197_start_0_1" shape="1561.16,1104.98 1565.50,1099.08 1563.09,1097.31 1558.74,1103.20">
        <request index="0" response="00" foes="00" cont="0"/>
        <request index="1" response="00" foes="00" cont="0"/>
    </junction>
    <junction id="node_198_start" type="priority" x="2592.26" y="1915.03" incLanes="209.0_0 209.0_1 209.0_2" intLanes=":node_198_start_0_0 :node_198_start_0_1 :node_198_start_0_2" shape="2592.38,1915.12 2599.21,1906.53 2598.98,1906.34 2592.14,1914.94">
        <request index="0" response="000" foes="000" cont="0"/>
        <request index="1" response="000" foes="000" cont="0"/>
        <request index="2" response="000" foes="000" cont="0"/>
    </junction>
    <junction id="node_200_end" type="dead_end" x="1051.17" y="693.53" incLanes="200.0_0" intLanes="" shape="1053.06,690.40 1051.17,693.53"/>
    <junction id="node_208_end" type="priority" x="2158.59" y="1569.57" incLanes="208.0_0 208.0_1 208.0_2" intLanes=":node_208_end_0_0 :node_208_end_0_1 :node_208_end_0_2" shape="2158.71,1569.67 2165.58,1561.10 2165.35,1560.91 2158.47,1569.47">
        <request index="0" response="000" foes="000" cont="0"/>
        <request index="1" response="000" foes="000" cont="0"/>
        <request index="2" response="000" foes="000" cont="0"/>
    </junction>
    <junction id="node_819_end" type="priority" x="3018.44" y="2274.31" incLanes="819.0_0 819.0_1" intLanes=":node_819_end_0_0 :node_819_end_0_1" shape="3018.57,2274.41 3023.18,2268.73 3022.98,2268.56 3018.31,2274.20">
        <request index="0" response="00" foes="00" cont="0"/>
        <request index="1" response="00" foes="00" cont="0"/>
    </junction>
    <junction id="node_820_end" type="priority" x="3356.86" y="2548.93" incLanes="820.0_0 820.0_1" intLanes=":node_820_end_0_0 :node_820_end_0_1" shape="3357.01,2549.04 3361.54,2543.30 3361.45,2543.23 3356.72,2548.81">
        <request index="0" response="00" foes="00" cont="0"/>
        <request index="1" response="00" foes="00" cont="0"/>
    </junction>

    <connection from="173.0" to="185.0" fromLane="0" toLane="0" via=":node_173_end_1_0" dir="s" state="M"/>
    <connection from="173.0" to="185.0" fromLane="1" toLane="1" via=":node_173_end_1_1" dir="s" state="M"/>