<?xml version="1.0" encoding="UTF-8"?>

<!-- generated on 2025-10-19 17:35:18 by Eclipse SUMO netconvert Version 1.23.1
<netconvertConfiguration xmlns:xsi="http://www.w3.org/2001/XMLSchema-instance" xsi:noNamespaceSchemaLocation="http://sumo.dlr.de/xsd/netconvertConfiguration.xsd">

    <input>
        <node-files value="/home/sdai/harry/TeraSim/jupiter/eb/jupiter_eb_tiles/tile_0144/tile_0144.nod.xml"/>
        <edge-files value="/home/sdai/harry/TeraSim/jupiter/eb/jupiter_eb_tiles/tile_0144/tile_0144.edg.xml"/>
        <connection-files value="/home/sdai/harry/TeraSim/jupiter/eb/jupiter_eb_tiles/tile_0144/tile_0144.con.xml"/>
    </input>

    <output>
        <output-file value="/home/sdai/harry/TeraSim/jupiter/eb/jupiter_eb_tiles/tile_0144/tile_0144.net.xml"/>
        <output.street-names value="true"/>
        <output.original-names value="true"/>
    </output>

    <processing>
        <geometry.remove value="false"/>
        <geometry.min-dist value="0.5"/>
        <edges.join value="false"/>
    </processing>

    <junctions>
        <no-internal-links value="false"/>
        <no-turnarounds value="true"/>
        <junctions.join value="true"/>
        <junctions.join-dist value="10"/>
        <junctions.corner-detail value="5"/>
        <junctions.internal-link-detail value="5"/>
        <junctions.limit-turn-speed value="5.5"/>
        <rectangular-lane-cut value="true"/>
        <check-lane-foes.all value="true"/>
    </junctions>

</netconvertConfiguration>
-->

<net version="1.20" junctionCornerDetail="5" junctionLinkDetail="5" rectangularLaneCut="true" limitTurnSpeed="5.50" checkLaneFoesAll="1" xmlns:xsi="http://www.w3.org/2001/XMLSchema-instance" xsi:noNamespaceSchemaLocation="http://sumo.dlr.de/xsd/net_file.xsd">

    <location netOffset="-787604.58,-3297414.41" convBoundary="0.00,0.00,9823.24,986.44" origBoundary="0.00,0.00,797427.81,3298400.85" projParameter="!"/>

    <edge id=":j_merge_end_47_0" function="internal">
        <lane id=":j_merge_end_47_0_0" index="0" disallow="all" speed="13.89" length="48.99" width="3.66" shape="3210.70,937.48 3224.79,942.01 3233.57,948.40 3242.37,954.65 3256.52,958.77"/>
        <lane id=":j_merge_end_47_0_1" index="1" speed="13.89" length="48.99" width="3.66" shape="3210.12,941.09 3257.92,947.88"/>
        <lane id=":j_merge_end_47_0_2" index="2" speed="13.89" length="48.99" width="3.66" shape="3209.55,944.71 3257.45,951.51"/>
        <lane id=":j_merge_end_47_0_3" index="3" speed="13.89" length="48.99" width="3.66" shape="3208.98,948.32 3256.98,955.14"/>
        <lane id=":j_merge_end_47_0_4" index="4" disallow="all" speed="13.89" length="48.99" width="3.66" shape="3208.40,951.94 3256.52,958.77"/>
    </edge>
    <edge id=":j_merge_end_6_0" function="internal">
        <lane id=":j_merge_end_6_0_0" index="0" disallow="all" speed="13.89" length="3.16" width="3.66" shape="8166.39,787.07 8166.16,801.71"/>
        <lane id=":j_merge_end_6_0_1" index="1" speed="13.89" length="3.16" width="3.66" shape="8166.26,790.73 8166.56,790.74"/>
        <lane id=":j_merge_end_6_0_2" index="2" speed="13.89" length="3.16" width="3.66" shape="8166.13,794.38 8166.43,794.40"/>
        <lane id=":j_merge_end_6_0_3" index="3" speed="13.89" length="3.16" width="3.66" shape="8166.00,798.04 8166.29,798.05"/>
        <lane id=":j_merge_end_6_0_4" index="4" disallow="all" speed="13.89" length="3.16" width="3.66" shape="8165.88,801.70 8166.16,801.71"/>
    </edge>
    <edge id=":j_merge_end_7_0" function="internal">
        <lane id=":j_merge_end_7_0_0" index="0" disallow="all" speed="13.89" length="3.17" width="3.66" shape="7081.39,749.14 7081.18,763.78"/>
        <lane id=":j_merge_end_7_0_1" index="1" speed="13.89" length="3.17" width="3.66" shape="7081.26,752.80 7081.56,752.81"/>
        <lane id=":j_merge_end_7_0_2" index="2" speed="13.89" length="3.17" width="3.66" shape="7081.13,756.45 7081.43,756.47"/>
        <lane id=":j_merge_end_7_0_3" index="3" speed="13.89" length="3.17" width="3.66" shape="7081.01,760.11 7081.30,760.12"/>
        <lane id=":j_merge_end_7_0_4" index="4" disallow="all" speed="13.89" length="3.17" width="3.66" shape="7080.88,763.77 7081.18,763.78"/>
    </edge>
    <edge id=":j_merge_start_47_0" function="internal">
        <lane id=":j_merge_start_47_0_0" index="0" speed="13.89" length="79.27" width="3.66" shape="3046.52,907.43 3124.23,923.08"/>
    </edge>
    <edge id=":j_merge_start_47_1" function="internal">
        <lane id=":j_merge_start_47_1_0" index="0" speed="13.89" length="79.48" width="3.66" shape="3045.80,911.31 3123.60,926.68"/>
        <lane id=":j_merge_start_47_1_1" index="1" speed="13.89" length="79.48" width="3.66" shape="3045.06,914.89 3122.97,930.29"/>
        <lane id=":j_merge_start_47_1_2" index="2" speed="13.89" length="79.48" width="3.66" shape="3044.32,918.48 3122.35,933.90"/>
        <lane id=":j_merge_start_47_1_3" index="3" disallow="all" speed="13.89" length="79.48" width="3.66" shape="3043.59,922.06 3121.72,937.50"/>
    </edge>
    <edge id=":j_merge_start_6_0" function="internal">
        <lane id=":j_merge_start_6_0_0" index="0" speed="13.89" length="3.03" width="3.66" shape="7958.48,779.85 7961.50,779.96"/>
    </edge>
    <edge id=":j_merge_start_6_1" function="internal">
        <lane id=":j_merge_start_6_1_0" index="0" speed="13.89" length="3.00" width="3.66" shape="7958.38,783.51 7961.38,783.61"/>
        <lane id=":j_merge_start_6_1_1" index="1" speed="13.89" length="3.00" width="3.66" shape="7958.25,787.17 7961.25,787.27"/>
        <lane id=":j_merge_start_6_1_2" index="2" speed="13.89" length="3.00" width="3.66" shape="7958.12,790.83 7961.12,790.93"/>
        <lane id=":j_merge_start_6_1_3" index="3" disallow="all" speed="13.89" length="3.00" width="3.66" shape="7958.00,794.48 7960.99,794.59"/>
    </edge>
    <edge id=":j_merge_start_7_0" function="internal">
        <lane id=":j_merge_start_7_0_0" index="0" speed="13.89" length="3.10" width="3.66" shape="6841.43,740.59 6844.51,740.92"/>
    </edge>
    <edge id=":j_merge_start_7_1" function="internal">
        <lane id=":j_merge_start_7_1_0" index="0" speed="13.89" length="3.00" width="3.66" shape="6841.39,744.47 6844.39,744.57"/>
        <lane id=":j_merge_start_7_1_1" index="1" speed="13.89" length="3.00" width="3.66" shape="6841.26,748.13 6844.26,748.23"/>
        <lane id=":j_merge_start_7_1_2" index="2" speed="13.89" length="3.00" width="3.66" shape="6841.14,751.78 6844.13,751.89"/>
        <lane id=":j_merge_start_7_1_3" index="3" disallow="all" speed="13.89" length="3.00" width="3.66" shape="6841.01,755.44 6844.00,755.55"/>
    </edge>
    <edge id=":junction_106_0" function="internal">
        <lane id=":junction_106_0_0" index="0" speed="13.89" length="134.59" width="3.66" shape="4850.73,745.73 4982.34,717.59"/>
    </edge>
    <edge id=":junction_106_1" function="internal">
        <lane id=":junction_106_1_0" index="0" speed="13.89" length="134.78" width="3.66" shape="4850.73,745.73 4983.64,721.44"/>
        <lane id=":junction_106_1_1" index="1" speed="13.89" length="134.78" width="3.66" shape="4851.47,749.32 4984.17,725.06"/>
        <lane id=":junction_106_1_2" index="2" speed="13.89" length="134.78" width="3.66" shape="4852.22,752.90 4984.69,728.69"/>
        <lane id=":junction_106_1_3" index="3" disallow="all" speed="13.89" length="134.78" width="3.66" shape="4852.96,756.48 4985.22,732.31"/>
    </edge>
    <edge id=":junction_62_0" function="internal">
        <lane id=":junction_62_0_0" index="0" speed="13.89" length="76.36" width="3.66" shape="9628.29,664.77 9703.59,652.11"/>
    </edge>
    <edge id=":junction_63_0" function="internal">
        <lane id=":junction_63_0_0" index="0" speed="13.89" length="141.15" width="3.66" shape="5736.31,705.46 5877.46,706.76"/>
    </edge>
    <edge id=":junction_63_1" function="internal">
        <lane id=":junction_63_1_0" index="0" speed="13.89" length="141.99" width="3.66" shape="5736.31,705.46 5878.14,710.74"/>
        <lane id=":junction_63_1_1" index="1" speed="13.89" length="141.99" width="3.66" shape="5736.16,709.11 5878.03,714.40"/>
        <lane id=":junction_63_1_2" index="2" speed="13.89" length="141.99" width="3.66" shape="5736.00,712.77 5877.91,718.06"/>
        <lane id=":junction_63_1_3" index="3" disallow="all" speed="13.89" length="141.99" width="3.66" shape="5735.84,716.43 5877.80,721.72"/>
    </edge>
    <edge id=":node_1_end_0" function="internal">
        <lane id=":node_1_end_0_0" index="0" speed="13.89" length="0.30" width="3.66" shape="2673.16,809.53 2673.43,809.61"/>
        <lane id=":node_1_end_0_1" index="1" speed="13.89" length="0.30" width="3.66" shape="2672.10,813.04 2672.38,813.12"/>
        <lane id=":node_1_end_0_2" index="2" speed="13.89" length="0.30" width="3.66" shape="2671.04,816.54 2671.34,816.63"/>
    </edge>
    <edge id=":node_1_start_0" function="internal">
        <lane id=":node_1_start_0_0" index="0" speed="13.89" length="0.30" width="3.66" shape="2505.09,758.79 2505.35,758.87"/>
        <lane id=":node_1_start_0_1" index="1" speed="13.89" length="0.30" width="3.66" shape="2504.01,762.29 2504.30,762.38"/>
        <lane id=":node_1_start_0_2" index="2" speed="13.89" length="0.30" width="3.66" shape="2502.93,765.79 2503.24,765.88"/>
    </edge>
    <edge id=":node_2_end_0" function="internal">
        <lane id=":node_2_end_0_0" index="0" speed="13.89" length="2.99" width="3.66" shape="2952.80,890.04 2955.67,890.74"/>
        <lane id=":node_2_end_0_1" index="1" speed="13.89" length="2.99" width="3.66" shape="2951.91,893.59 2954.82,894.30"/>
        <lane id=":node_2_end_0_2" index="2" speed="13.89" length="2.99" width="3.66" shape="2951.02,897.14 2953.97,897.86"/>
    </edge>
    <edge id=":node_53_end_0" function="internal">
        <lane id=":node_53_end_0_0" index="0" speed="13.89" length="0.30" width="3.66" shape="2425.36,734.25 2425.67,734.34"/>
        <lane id=":node_53_end_0_1" index="1" speed="13.89" length="0.30" width="3.66" shape="2424.31,737.76 2424.59,737.84"/>
        <lane id=":node_53_end_0_2" index="2" speed="13.89" length="0.30" width="3.66" shape="2423.26,741.26 2423.51,741.34"/>
    </edge>
    <edge id=":node_55_end_0" function="internal">
        <lane id=":node_55_end_0_0" index="0" speed="13.89" length="3.00" width="3.66" shape="5959.00,713.29 5962.01,713.39"/>
        <lane id=":node_55_end_0_1" index="1" speed="13.89" length="3.00" width="3.66" shape="5958.88,716.95 5961.88,717.05"/>
        <lane id=":node_55_end_0_2" index="2" speed="13.89" length="3.00" width="3.66" shape="5958.77,720.61 5961.75,720.71"/>
    </edge>
    <edge id=":node_56_end_0" function="internal">
        <lane id=":node_56_end_0_0" index="0" speed="13.89" length="3.00" width="3.66" shape="6724.93,740.41 6727.92,740.51"/>
        <lane id=":node_56_end_0_1" index="1" speed="13.89" length="3.00" width="3.66" shape="6724.80,744.07 6727.79,744.17"/>
        <lane id=":node_56_end_0_2" index="2" speed="13.89" length="3.00" width="3.66" shape="6724.67,747.72 6727.67,747.83"/>
    </edge>
    <edge id=":node_58_end_0" function="internal">
        <lane id=":node_58_end_0_0" index="0" speed="13.89" length="3.00" width="3.66" shape="7604.90,771.22 7607.90,771.32"/>
        <lane id=":node_58_end_0_1" index="1" speed="13.89" length="3.00" width="3.66" shape="7604.77,774.88 7607.77,774.98"/>
        <lane id=":node_58_end_0_2" index="2" speed="13.89" length="3.00" width="3.66" shape="7604.65,778.53 7607.65,778.64"/>
    </edge>
    <edge id=":node_72_start_0" function="internal">
        <lane id=":node_72_start_0_0" index="0" speed="13.89" length="0.30" width="3.66" shape="5042.52,705.11 5042.81,705.04"/>
    </edge>
    <edge id=":node_73_end_0" function="internal">
        <lane id=":node_73_end_0_0" index="0" speed="13.89" length="0.30" width="3.66" shape="2972.94,887.53 2973.23,887.61"/>
    </edge>
    <edge id=":node_75_end_0" function="internal">
        <lane id=":node_75_end_0_0" index="0" speed="13.89" length="3.00" width="3.66" shape="5079.42,708.46 5082.40,708.13"/>
        <lane id=":node_75_end_0_1" index="1" speed="13.89" length="3.00" width="3.66" shape="5079.82,712.10 5082.81,711.76"/>
        <lane id=":node_75_end_0_2" index="2" speed="13.89" length="3.00" width="3.66" shape="5080.23,715.73 5083.22,715.40"/>
    </edge>
    <edge id=":node_854_end_0" function="internal">
        <lane id=":node_854_end_0_0" index="0" speed="13.89" length="0.30" width="3.66" shape="4620.88,805.25 4621.17,805.17"/>
        <lane id=":node_854_end_0_1" index="1" speed="13.89" length="0.30" width="3.66" shape="4621.93,808.76 4622.22,808.67"/>
        <lane id=":node_854_end_0_2" index="2" speed="13.89" length="0.30" width="3.66" shape="4622.98,812.27 4623.26,812.18"/>
    </edge>

    <edge id="1.0" from="node_1_start" to="node_1_end" priority="-1" type="town" shape="2501.48,771.08 2505.22,772.21 2508.95,773.34 2512.69,774.47 2516.42,775.60 2520.16,776.73 2523.90,777.86 2527.63,778.99 2531.37,780.12 2535.10,781.25 2538.84,782.38 2542.57,783.51 2546.31,784.63 2550.05,785.76 2553.78,786.89 2557.52,788.02 2561.25,789.15 2564.99,790.28 2568.73,791.40 2572.46,792.53 2576.20,793.66 2579.93,794.79 2583.67,795.92 2587.41,797.04 2591.14,798.17 2594.88,799.30 2598.62,800.43 2602.35,801.55 2606.09,802.68 2609.82,803.81 2613.56,804.94 2617.30,806.06 2621.03,807.19 2624.77,808.32 2628.51,809.44 2632.24,810.57 2635.98,811.70 2639.72,812.83 2643.45,813.95 2647.19,815.08 2650.92,816.21 2654.66,817.33 2658.40,818.46 2662.13,819.59 2665.87,820.71 2669.61,821.84">
        <lane id="1.0_0" index="0" disallow="all" speed="13.89" length="175.28" width="3.66" shape="2506.41,755.37 2509.99,756.45 2513.72,757.58 2517.46,758.71 2521.19,759.84 2524.93,760.97 2528.67,762.10 2532.40,763.23 2536.14,764.36 2539.87,765.49 2543.61,766.62 2547.32,767.74 2551.06,768.86 2554.82,770.00 2558.55,771.13 2562.29,772.26 2566.02,773.39 2569.74,774.51 2573.48,775.63 2577.23,776.77 2580.97,777.90 2584.70,779.03 2588.42,780.15 2592.16,781.27 2595.91,782.41 2599.65,783.54 2603.37,784.66 2607.10,785.78 2610.86,786.92 2614.59,788.05 2618.31,789.17 2622.05,790.29 2625.80,791.43 2629.52,792.55 2633.26,793.67 2637.01,794.81 2640.75,795.94 2644.47,797.06 2648.20,798.18 2651.96,799.32 2655.67,800.44 2659.41,801.56 2663.17,802.70 2666.88,803.82 2670.62,804.94 2674.21,806.03" type="shoulder"/>
        <lane id="1.0_1" index="1" speed="13.89" length="175.28" width="3.66" shape="2505.35,758.87 2508.93,759.95 2512.66,761.08 2516.40,762.21 2520.13,763.34 2523.87,764.47 2527.61,765.60 2531.34,766.73 2535.08,767.86 2538.81,768.99 2542.55,770.12 2546.27,771.25 2550.00,772.37 2553.76,773.50 2557.49,774.63 2561.23,775.76 2564.96,776.89 2568.68,778.02 2572.43,779.14 2576.17,780.27 2579.91,781.40 2583.64,782.53 2587.36,783.66 2591.11,784.78 2594.85,785.91 2598.59,787.04 2602.32,788.17 2606.05,789.29 2609.80,790.42 2613.53,791.55 2617.25,792.68 2621.00,793.80 2624.74,794.93 2628.46,796.06 2632.21,797.18 2635.95,798.31 2639.69,799.44 2643.42,800.57 2647.15,801.69 2650.90,802.82 2654.62,803.95 2658.35,805.07 2662.11,806.20 2665.83,807.33 2669.56,808.45 2673.16,809.53"/>
        <lane id="1.0_2" index="2" speed="13.89" length="175.28" width="3.66" shape="2504.30,762.38 2507.87,763.46 2511.60,764.59 2515.34,765.72 2519.07,766.85 2522.81,767.98 2526.55,769.11 2530.28,770.24 2534.02,771.37 2537.75,772.50 2541.49,773.63 2545.21,774.75 2548.95,775.87 2552.70,777.01 2556.43,778.14 2560.17,779.27 2563.90,780.40 2567.63,781.52 2571.37,782.64 2575.11,783.78 2578.85,784.91 2582.58,786.04 2586.31,787.16 2590.05,788.28 2593.79,789.42 2597.53,790.55 2601.26,791.67 2604.99,792.79 2608.74,793.93 2612.47,795.06 2616.20,796.18 2619.94,797.30 2623.68,798.44 2627.41,799.56 2631.15,800.68 2634.89,801.82 2638.63,802.95 2642.36,804.07 2646.09,805.19 2649.84,806.33 2653.56,807.45 2657.30,808.57 2661.05,809.71 2664.77,810.83 2668.51,811.95 2672.10,813.04"/>
        <lane id="1.0_3" index="3" speed="13.89" length="175.28" width="3.66" shape="2503.24,765.88 2506.81,766.96 2510.54,768.09 2514.28,769.22 2518.01,770.35 2521.75,771.48 2525.49,772.61 2529.22,773.74 2532.96,774.87 2536.69,776.00 2540.43,777.13 2544.16,778.26 2547.90,779.38 2551.64,780.51 2555.37,781.64 2559.11,782.77 2562.84,783.90 2566.58,785.03 2570.32,786.15 2574.05,787.28 2577.79,788.41 2581.52,789.54 2585.26,790.67 2589.00,791.79 2592.73,792.92 2596.47,794.05 2600.21,795.18 2603.94,796.30 2607.68,797.43 2611.41,798.56 2615.15,799.69 2618.89,800.81 2622.62,801.94 2626.36,803.07 2630.10,804.19 2633.83,805.32 2637.57,806.45 2641.31,807.58 2645.04,808.70 2648.78,809.83 2652.51,810.96 2656.25,812.08 2659.99,813.21 2663.72,814.34 2667.46,815.46 2671.04,816.54"/>
        <lane id="1.0_4" index="4" disallow="all" speed="13.89" length="175.28" width="3.66" shape="2502.18,769.38 2505.75,770.46 2509.48,771.59 2513.22,772.72 2516.95,773.85 2520.69,774.98 2524.43,776.11 2528.16,777.24 2531.90,778.37 2535.63,779.50 2539.37,780.63 2543.10,781.76 2546.84,782.88 2550.58,784.01 2554.31,785.14 2558.05,786.27 2561.78,787.40 2565.52,788.53 2569.26,789.65 2572.99,790.78 2576.73,791.91 2580.46,793.04 2584.20,794.17 2587.94,795.29 2591.67,796.42 2595.41,797.55 2599.15,798.68 2602.88,799.80 2606.62,800.93 2610.35,802.06 2614.09,803.19 2617.83,804.31 2621.56,805.44 2625.30,806.57 2629.04,807.69 2632.77,808.82 2636.51,809.95 2640.25,811.08 2643.98,812.20 2647.72,813.33 2651.45,814.46 2655.19,815.58 2658.93,816.71 2662.66,817.84 2666.40,818.96 2669.98,820.04" type="shoulder"/>
    </edge>
    <edge id="2.0" from="node_1_end" to="node_2_end" priority="-1" type="town" shape="2669.61,821.84 2750.05,845.74 2830.19,869.93 2855.80,877.41 2881.59,884.52 2916.90,894.23 2951.18,902.84">
        <lane id="2.0_0" index="0" disallow="all" speed="13.89" length="290.91" width="3.66" shape="2674.47,806.10 2754.78,829.97 2834.88,854.15 2860.30,861.57 2885.97,868.64 2921.09,878.31 2953.69,886.49" type="shoulder"/>
        <lane id="2.0_1" index="1" speed="13.89" length="290.91" width="3.66" shape="2673.43,809.61 2753.73,833.47 2833.84,857.65 2859.30,865.09 2884.99,872.17 2920.16,881.84 2952.80,890.04"/>
        <lane id="2.0_2" index="2" speed="13.89" length="290.91" width="3.66" shape="2672.38,813.12 2752.68,836.98 2832.80,861.16 2858.30,868.61 2884.02,875.70 2919.23,885.38 2951.91,893.59"/>
        <lane id="2.0_3" index="3" speed="13.89" length="290.91" width="3.66" shape="2671.34,816.63 2751.63,840.49 2831.76,864.67 2857.30,872.13 2883.05,879.23 2918.30,888.92 2951.02,897.14"/>
        <lane id="2.0_4" index="4" disallow="all" speed="13.89" length="290.91" width="3.66" shape="2670.30,820.14 2750.58,843.99 2830.71,868.18 2856.30,875.65 2882.08,882.76 2917.37,892.46 2950.13,900.69" type="shoulder"/>
    </edge>
    <edge id="26.0" from="junction_63" to="node_26_end" priority="-1" type="town" shape="5877.51,708.58 5936.42,706.80 6026.27,703.61 6067.64,701.71">
        <lane id="26.0_0" index="0" speed="13.89" length="190.23" width="3.66" shape="5877.46,706.76 5936.36,704.98 6026.20,701.79 6067.56,699.89"/>
    </edge>
    <edge id="28.0" from="node_28_start" to="j_merge_start_7" priority="-1" type="town" shape="6434.59,712.99 6489.26,714.99 6518.76,716.62 6726.50,732.54 6843.05,742.56">
        <lane id="28.0_0" index="0" speed="13.89" length="407.89" width="3.66" shape="6434.66,711.17 6489.35,713.17 6518.88,714.80 6726.65,730.72 6841.43,740.59"/>
    </edge>
    <edge id="29.0" from="node_29_start" to="j_merge_start_6" priority="-1" type="town" shape="7410.96,745.06 7466.22,748.08 7657.57,764.30 7704.50,767.99 7893.46,778.51 7959.93,781.75">
        <lane id="29.0_0" index="0" speed="13.89" length="548.70" width="3.66" shape="7411.06,743.24 7466.35,746.26 7657.72,762.48 7704.63,766.17 7893.56,776.69 7958.48,779.85"/>
    </edge>
    <edge id="30.0" from="junction_62" to="node_30_end" priority="-1" type="town" shape="9703.94,653.90 9727.09,649.33 9739.42,646.65 9780.28,637.42 9802.11,631.45 9823.23,623.77">
        <lane id="30.0_0" index="0" speed="13.89" length="122.93" width="3.66" shape="9703.59,652.11 9726.72,647.54 9739.03,644.87 9779.84,635.65 9801.56,629.71 9822.61,622.05"/>
    </edge>
    <edge id="47.0" from="j_merge_end_6" to="junction_62" priority="-1" type="town" shape="8165.95,803.53 8411.73,812.60 8439.96,813.15 8488.76,812.65 8497.93,812.77 8507.38,811.77 8526.46,810.63 8544.32,808.89 8553.43,808.54 8567.93,807.13 8595.00,804.17 8622.32,800.97 8629.04,800.21 8635.35,799.75 8643.91,798.31 8676.73,794.39 8785.79,781.35 8818.55,777.02 9404.26,705.45 9629.86,677.48">
        <lane id="47.0_0" index="0" disallow="all" speed="13.89" length="1470.63" width="3.66" shape="8166.70,787.08 8412.20,796.14 8440.04,796.68 8488.79,796.18 8497.17,796.29 8506.03,795.36 8525.17,794.21 8543.21,792.45 8552.32,792.10 8566.24,790.75 8593.15,787.81 8620.42,784.61 8627.52,783.81 8633.38,783.38 8641.57,782.01 8674.78,778.04 8783.74,765.01 8816.48,760.69 9402.25,689.11 9627.84,661.14" type="shoulder"/>
        <lane id="47.0_1" index="1" speed="13.89" length="1470.63" width="3.66" shape="8166.56,790.74 8412.10,799.80 8440.02,800.34 8488.78,799.84 8497.34,799.96 8506.33,799.00 8525.46,797.86 8543.46,796.11 8552.57,795.76 8566.62,794.39 8593.56,791.45 8620.84,788.25 8627.86,787.46 8633.82,787.02 8642.09,785.63 8675.21,781.67 8784.19,768.64 8816.94,764.32 9402.70,692.74 9628.29,664.77"/>
        <lane id="47.0_2" index="2" speed="13.89" length="1470.63" width="3.66" shape="8166.43,794.40 8411.99,803.46 8440.01,804.00 8488.78,803.50 8497.51,803.62 8506.63,802.65 8525.75,801.51 8543.70,799.76 8552.82,799.41 8566.99,798.03 8593.97,795.08 8621.27,791.89 8628.20,791.10 8634.26,790.66 8642.61,789.25 8675.65,785.31 8784.65,772.28 8817.40,767.95 9403.15,696.37 9628.74,668.40"/>
        <lane id="47.0_3" index="3" speed="13.89" length="1470.63" width="3.66" shape="8166.29,798.05 8411.89,807.12 8439.99,807.66 8488.77,807.16 8497.68,807.28 8506.93,806.30 8526.03,805.16 8543.95,803.41 8553.06,803.06 8567.37,801.67 8594.39,798.72 8621.69,795.52 8628.54,794.75 8634.70,794.30 8643.13,792.88 8676.08,788.94 8785.11,775.91 8817.86,771.58 9403.59,700.01 9629.19,672.04"/>
        <lane id="47.0_4" index="4" disallow="all" speed="13.89" length="1470.63" width="3.66" shape="8166.16,801.71 8411.79,810.77 8439.97,811.32 8488.77,810.82 8497.85,810.94 8507.23,809.95 8526.32,808.81 8544.20,807.07 8553.31,806.72 8567.75,805.31 8594.80,802.36 8622.11,799.16 8628.87,798.39 8635.14,797.94 8643.65,796.50 8676.52,792.58 8785.57,779.54 8818.32,775.21 9404.04,703.64 9629.64,675.67" type="shoulder"/>
    </edge>
    <edge id="53.0" from="junction_58" to="node_53_end" priority="-1" type="town" shape="54.33,16.49 265.68,79.90 485.97,146.40 701.26,211.49 809.16,244.08 863.05,261.00 916.68,278.54 1151.36,356.94 1268.71,396.04 1327.10,415.27 1386.55,434.26 2262.07,698.82 2421.79,746.55">
        <lane id="53.0_0" index="0" disallow="all" speed="13.89" length="2511.58" width="3.66" shape="59.07,0.72 270.43,64.13 490.74,130.64 706.03,195.73 814.01,228.34 868.08,245.32 921.85,262.91 1156.58,341.32 1273.89,380.41 1332.19,399.61 1391.44,418.54 2266.81,683.05 2426.40,730.74" type="shoulder"/>
        <lane id="53.0_1" index="1" speed="13.89" length="2511.58" width="3.66" shape="3.63,-12.09 269.38,67.64 489.68,134.14 704.97,199.23 812.93,231.84 866.96,248.81 920.70,266.38 1155.42,344.79 1272.74,383.88 1331.06,403.09 1390.36,422.03 2265.76,686.56 2425.36,734.25"/>
        <lane id="53.0_2" index="2" speed="13.89" length="2511.58" width="3.66" shape="2.58,-8.59 268.32,71.14 488.62,137.65 703.91,202.74 811.86,235.34 865.85,252.29 919.56,269.86 1154.26,348.26 1271.59,387.36 1329.93,406.57 1389.27,425.53 2264.71,690.06 2424.31,737.76"/>
        <lane id="53.0_3" index="3" speed="13.89" length="2511.58" width="3.66" shape="1.52,-5.08 267.27,74.65 487.56,141.15 702.85,206.24 810.78,238.84 864.73,255.78 918.41,273.33 1153.10,351.74 1270.44,390.83 1328.80,410.05 1388.18,429.02 2263.65,693.57 2423.26,741.26"/>
        <lane id="53.0_4" index="4" disallow="all" speed="13.89" length="2511.58" width="3.66" shape="54.86,14.74 266.21,78.15 486.50,144.65 701.79,209.74 809.70,242.34 863.61,259.26 917.26,276.81 1151.94,355.21 1269.29,394.31 1327.67,413.53 1387.10,432.52 2262.60,697.07 2422.21,744.77" type="shoulder"/>
    </edge>
    <edge id="54.0" from="node_53_end" to="node_1_start" priority="-1" type="town">
        <lane id="54.0_0" index="0" disallow="all" speed="13.89" length="83.10" width="3.66" shape="2426.75,730.85 2506.16,755.29" type="shoulder"/>
        <lane id="54.0_1" index="1" speed="13.89" length="83.10" width="3.66" shape="2425.67,734.34 2505.09,758.79"/>
        <lane id="54.0_2" index="2" speed="13.89" length="83.10" width="3.66" shape="2424.59,737.84 2504.01,762.29"/>
        <lane id="54.0_3" index="3" speed="13.89" length="83.10" width="3.66" shape="2423.51,741.34 2502.93,765.79"/>
        <lane id="54.0_4" index="4" disallow="all" speed="13.89" length="83.10" width="3.66" shape="2422.44,744.84 2501.86,769.28" type="shoulder"/>
    </edge>
    <edge id="55.0" from="junction_63" to="node_55_end" priority="-1" type="town" shape="5876.98,723.52 5960.07,726.14">
        <lane id="55.0_0" index="0" speed="13.89" length="80.89" width="3.66" shape="5878.14,710.74 5959.00,713.29"/>
        <lane id="55.0_1" index="1" speed="13.89" length="80.89" width="3.66" shape="5878.03,714.40 5958.88,716.95"/>
        <lane id="55.0_2" index="2" speed="13.89" length="80.89" width="3.66" shape="5877.91,718.06 5958.77,720.61"/>
        <lane id="55.0_3" index="3" disallow="all" speed="13.89" length="80.89" width="3.66" shape="5877.80,721.72 5958.65,724.27" type="shoulder"/>
    </edge>
    <edge id="56.0" from="node_55_end" to="node_56_end" priority="-1" type="town">
        <lane id="56.0_0" index="0" disallow="all" speed="13.89" length="763.40" width="3.66" shape="5962.14,709.74 6725.06,736.75" type="shoulder"/>
        <lane id="56.0_1" index="1" speed="13.89" length="763.40" width="3.66" shape="5962.01,713.39 6724.93,740.41"/>
        <lane id="56.0_2" index="2" speed="13.89" length="763.40" width="3.66" shape="5961.88,717.05 6724.80,744.07"/>
        <lane id="56.0_3" index="3" speed="13.89" length="763.40" width="3.66" shape="5961.75,720.71 6724.67,747.72"/>
        <lane id="56.0_4" index="4" disallow="all" speed="13.89" length="763.40" width="3.66" shape="5961.62,724.37 6724.54,751.38" type="shoulder"/>
    </edge>
    <edge id="57.0" from="node_56_end" to="j_merge_start_7" priority="-1" type="town">
        <lane id="57.0_0" index="0" speed="13.89" length="113.54" width="3.66" shape="6727.92,740.51 6841.39,744.47"/>
        <lane id="57.0_1" index="1" speed="13.89" length="113.54" width="3.66" shape="6727.79,744.17 6841.26,748.13"/>
        <lane id="57.0_2" index="2" speed="13.89" length="113.54" width="3.66" shape="6727.67,747.83 6841.14,751.78"/>
        <lane id="57.0_3" index="3" disallow="all" speed="13.89" length="113.54" width="3.66" shape="6727.54,751.49 6841.01,755.44" type="shoulder"/>
    </edge>
    <edge id="58.0" from="j_merge_end_7" to="node_58_end" priority="-1" type="town">
        <lane id="58.0_0" index="0" disallow="all" speed="13.89" length="523.67" width="3.66" shape="7081.69,749.15 7605.03,767.56" type="shoulder"/>
        <lane id="58.0_1" index="1" speed="13.89" length="523.67" width="3.66" shape="7081.56,752.81 7604.90,771.22"/>
        <lane id="58.0_2" index="2" speed="13.89" length="523.67" width="3.66" shape="7081.43,756.47 7604.77,774.88"/>
        <lane id="58.0_3" index="3" speed="13.89" length="523.67" width="3.66" shape="7081.30,760.12 7604.65,778.53"/>
        <lane id="58.0_4" index="4" disallow="all" speed="13.89" length="523.67" width="3.66" shape="7081.18,763.78 7604.52,782.19" type="shoulder"/>
    </edge>
    <edge id="59.0" from="node_58_end" to="j_merge_start_6" priority="-1" type="town">
        <lane id="59.0_0" index="0" speed="13.89" length="350.69" width="3.66" shape="7607.90,771.32 7958.38,783.51"/>
        <lane id="59.0_1" index="1" speed="13.89" length="350.69" width="3.66" shape="7607.77,774.98 7958.25,787.17"/>
        <lane id="59.0_2" index="2" speed="13.89" length="350.69" width="3.66" shape="7607.65,778.64 7958.12,790.83"/>
        <lane id="59.0_3" index="3" disallow="all" speed="13.89" length="350.69" width="3.66" shape="7607.52,782.30 7958.00,794.48" type="shoulder"/>
    </edge>
    <edge id="72.0" from="node_72_start" to="node_72_end" priority="-1" type="town" shape="5043.05,706.86 5069.45,701.16 5096.78,695.72 5139.08,688.21 5178.11,682.06">
        <lane id="72.0_0" index="0" speed="13.89" length="137.31" width="3.66" shape="5042.81,705.04 5069.08,699.37 5096.45,693.93 5138.78,686.41 5177.83,680.26"/>
    </edge>
    <edge id="73.0" from="node_73_start" to="node_73_end" priority="-1" type="town" shape="2568.46,724.07 2682.58,779.15 2765.02,818.25 2862.72,854.29 2917.42,872.85 2944.91,881.42 2972.57,889.32">
        <lane id="73.0_0" index="0" speed="13.89" length="436.96" width="3.66" shape="2569.26,722.43 2683.37,777.50 2765.73,816.57 2863.33,852.57 2917.99,871.11 2945.44,879.67 2972.94,887.53"/>
    </edge>
    <edge id="75.0" from="junction_106" to="node_75_end" priority="-1" type="town" shape="4985.17,734.16 5030.83,727.50 5077.74,721.53 5082.33,721.02">
        <lane id="75.0_0" index="0" speed="13.89" length="96.48" width="3.66" shape="4983.64,721.44 5029.10,714.81 5076.14,708.82 5079.42,708.46"/>
        <lane id="75.0_1" index="1" speed="13.89" length="96.48" width="3.66" shape="4984.17,725.06 5029.60,718.44 5076.60,712.46 5079.82,712.10"/>
        <lane id="75.0_2" index="2" speed="13.89" length="96.48" width="3.66" shape="4984.69,728.69 5030.09,722.06 5077.06,716.09 5080.23,715.73"/>
        <lane id="75.0_3" index="3" disallow="all" speed="13.89" length="96.48" width="3.66" shape="4985.22,732.31 5030.59,725.69 5077.52,719.72 5080.63,719.37" type="shoulder"/>
    </edge>