<?xml version='1.0' encoding='utf-8'?>
<edges>
    <edge id="1.0" from="node_1_start" to="node_1_end" numLanes="5" speed="13.89" type="town" shape="790106.06,3298185.49 790109.80,3298186.62 790109.80,3298186.62 790113.53,3298187.75 790113.53,3298187.75 790117.27,3298188.88 790117.27,3298188.88 790121.00,3298190.01 790121.00,3298190.01 790124.74,3298191.14 790124.74,3298191.14 790128.48,3298192.27 790128.48,3298192.27 790132.21,3298193.40 790132.21,3298193.40 790135.95,3298194.53 790135.95,3298194.53 790139.68,3298195.66 790139.68,3298195.66 790143.42,3298196.79 790143.42,3298196.79 790147.15,3298197.92 790147.15,3298197.92 790150.89,3298199.04 790150.89,3298199.04 790154.63,3298200.17 790154.63,3298200.17 790158.36,3298201.30 790158.36,3298201.30 790162.10,3298202.43 790162.10,3298202.43 790165.83,3298203.56 790165.83,3298203.56 790169.57,3298204.69 790169.57,3298204.69 790173.31,3298205.81 790173.31,3298205.81 790177.04,3298206.94 790177.04,3298206.94 790180.78,3298208.07 790180.78,3298208.07 790184.51,3298209.20 790184.51,3298209.20 790188.25,3298210.33 790188.25,3298210.33 790191.99,3298211.45 790191.99,3298211.45 790195.72,3298212.58 790195.72,3298212.58 790199.46,3298213.71 790199.46,3298213.71 790203.20,3298214.84 790203.20,3298214.84 790206.93,3298215.96 790206.93,3298215.96 790210.67,3298217.09 790210.67,3298217.09 790214.40,3298218.22 790214.40,3298218.22 790218.14,3298219.35 790218.14,3298219.35 790221.88,3298220.47 790221.88,3298220.47 790225.61,3298221.60 790225.61,3298221.60 790229.35,3298222.73 790229.35,3298222.73 790233.09,3298223.85 790233.09,3298223.85 790236.82,3298224.98 790236.82,3298224.98 790240.56,3298226.11 790240.56,3298226.11 790244.30,3298227.24 790244.30,3298227.24 790248.03,3298228.36 790248.03,3298228.36 790251.77,3298229.49 790251.77,3298229.49 790255.50,3298230.62 790255.50,3298230.62 790259.24,3298231.74 790259.24,3298231.74 790262.98,3298232.87 790262.98,3298232.87 790266.71,3298234.00 790266.71,3298234.00 790270.45,3298235.12 790270.45,3298235.12 790274.19,3298236.25">
        <lane index="0" width="3.66" type="shoulder" disallow="all" />
        <lane index="1" width="3.66" />
        <lane index="2" width="3.66" />
        <lane index="3" width="3.66" />
        <lane index="4" width="3.66" type="shoulder" disallow="all" />
    </edge>
    <edge id="2.0" from="node_1_end" to="node_2_end" numLanes="5" speed="13.89" type="town" shape="790274.19,3298236.25 790354.63,3298260.15 790354.63,3298260.15 790434.77,3298284.34 790434.77,3298284.34 790460.38,3298291.82 790460.38,3298291.82 790486.17,3298298.93 790486.17,3298298.93 790521.48,3298308.64 790521.48,3298308.64 790555.76,3298317.25">
        <lane index="0" width="3.66" type="shoulder" disallow="all" />
        <lane index="1" width="3.66" />
        <lane index="2" width="3.66" />
        <lane index="3" width="3.66" />
        <lane index="4" width="3.66" type="shoulder" disallow="all" />
    </edge>
    <edge id="26.0" from="junction_63" to="node_26_end" numLanes="1" speed="13.89" type="town" shape="793482.09,3298122.99 793541.00,3298121.21 793541.00,3298121.21 793630.85,3298118.02 793630.85,3298118.02 793672.22,3298116.12">
        <lane index="0" width="3.66" />
    </edge>
    <edge id="28.0" from="node_28_start" to="j_merge_start_7" numLanes="1" speed="13.89" type="town" shape="794039.17,3298127.40 794093.84,3298129.40 794093.84,3298129.40 794123.34,3298131.03 794123.34,3298131.03 794331.08,3298146.95 794331.08,3298146.95 794447.63,3298156.97">
        <lane index="0" width="3.66" />
    </edge>
    <edge id="29.0" from="node_29_start" to="j_merge_start_6" numLanes="1" speed="13.89" type="town" shape="795015.54,3298159.47 795070.80,3298162.49 795070.80,3298162.49 795262.15,3298178.71 795262.15,3298178.71 795309.08,3298182.40 795309.08,3298182.40 795498.04,3298192.92 795498.04,3298192.92 795564.51,3298196.16">
        <lane index="0" width="3.66" />
    </edge>
    <edge id="47.0" from="j_merge_end_6" to="junction_62" numLanes="5" speed="13.89" type="town" shape="795770.53,3298217.94 796016.31,3298227.01 796016.31,3298227.01 796044.54,3298227.56 796044.54,3298227.56 796093.34,3298227.06 796093.34,3298227.06 796102.51,3298227.18 796102.51,3298227.18 796111.96,3298226.18 796111.96,3298226.18 796131.04,3298225.04 796131.04,3298225.04 796148.90,3298223.30 796148.90,3298223.30 796158.01,3298222.95 796158.01,3298222.95 796172.51,3298221.54 796172.51,3298221.54 796199.58,3298218.58 796199.58,3298218.58 796226.90,3298215.38 796226.90,3298215.38 796233.62,3298214.62 796233.62,3298214.62 796239.93,3298214.16 796239.93,3298214.16 796248.49,3298212.72 796248.49,3298212.72 796281.31,3298208.80 796281.31,3298208.80 796390.37,3298195.76 796390.37,3298195.76 796423.13,3298191.43 796423.13,3298191.43 797008.84,3298119.86 797008.84,3298119.86 797234.44,3298091.89">
        <lane index="0" width="3.66" type="shoulder" disallow="all" />
        <lane index="1" width="3.66" />
        <lane index="2" width="3.66" />
        <lane index="3" width="3.66" />
        <lane index="4" width="3.66" type="shoulder" disallow="all" />
    </edge>
    <edge id="53.0" from="junction_58" to="node_53_end" numLanes="5" speed="13.89" type="town" shape="787658.91,3297430.90 787870.26,3297494.31 787870.26,3297494.31 788090.55,3297560.81 788090.55,3297560.81 788305.84,3297625.90 788305.84,3297625.90 788413.74,3297658.49 788413.74,3297658.49 788467.63,3297675.41 788467.63,3297675.41 788521.26,3297692.95 788521.26,3297692.95 788755.94,3297771.35 788755.94,3297771.35 788873.29,3297810.45 788873.29,3297810.45 788931.68,3297829.68 788931.68,3297829.68 788991.13,3297848.67 788991.13,3297848.67 789866.65,3298113.23 789866.65,3298113.23 790026.37,3298160.96">
        <lane index="0" width="3.66" type="shoulder" disallow="all" />
        <lane index="1" width="3.66" />
        <lane index="2" width="3.66" />
        <lane index="3" width="3.66" />
        <lane index="4" width="3.66" type="shoulder" disallow="all" />
    </edge>
    <edge id="54.0" from="node_53_end" to="node_1_start" numLanes="5" speed="13.89" type="town" shape="790026.37,3298160.96 790106.06,3298185.49">
        <lane index="0" width="3.66" type="shoulder" disallow="all" />
        <lane index="1" width="3.66" />
        <lane index="2" width="3.66" />
        <lane index="3" width="3.66" />
        <lane index="4" width="3.66" type="shoulder" disallow="all" />
    </edge>
    <edge id="55.0" from="junction_63" to="node_55_end" numLanes="4" speed="13.89" type="town" shape="793481.56,3298137.93 793564.65,3298140.55">
        <lane index="0" width="3.66" />
        <lane index="1" width="3.66" />
        <lane index="2" width="3.66" />
        <lane index="3" width="3.66" type="shoulder" disallow="all" />
    </edge>
    <edge id="56.0" from="node_55_end" to="node_56_end" numLanes="5" speed="13.89" type="town" shape="793564.65,3298140.55 794330.55,3298167.67">
        <lane index="0" width="3.66" type="shoulder" disallow="all" />
        <lane index="1" width="3.66" />
        <lane index="2" width="3.66" />
        <lane index="3" width="3.66" />
        <lane index="4" width="3.66" type="shoulder" disallow="all" />
    </edge>
    <edge id="57.0" from="node_56_end" to="j_merge_start_7" numLanes="4" speed="13.89" type="town" shape="794330.55,3298167.67 794447.05,3298171.73">
        <lane index="0" width="3.66" />
        <lane index="1" width="3.66" />
        <lane index="2" width="3.66" />
        <lane index="3" width="3.66" type="shoulder" disallow="all" />
    </edge>
    <edge id="58.0" from="j_merge_end_7" to="node_58_end" numLanes="5" speed="13.89" type="town" shape="794685.54,3298180.01 795210.53,3298198.48">
        <lane index="0" width="3.66" type="shoulder" disallow="all" />
        <lane index="1" width="3.66" />
        <lane index="2" width="3.66" />
        <lane index="3" width="3.66" />
        <lane index="4" width="3.66" type="shoulder" disallow="all" />
    </edge>
    <edge id="59.0" from="node_58_end" to="j_merge_start_6" numLanes="4" speed="13.89" type="town" shape="795210.53,3298198.48 795564.01,3298210.77">
        <lane index="0" width="3.66" />
        <lane index="1" width="3.66" />
        <lane index="2" width="3.66" />
        <lane index="3" width="3.66" type="shoulder" disallow="all" />
    </edge>
    <edge id="72.0" from="node_72_start" to="node_72_end" numLanes="1" speed="13.89" type="town" shape="792647.63,3298121.27 792674.03,3298115.57 792674.03,3298115.57 792701.36,3298110.13 792701.36,3298110.13 792743.66,3298102.62 792743.66,3298102.62 792782.69,3298096.47">
        <lane index="0" width="3.66" />
    </edge>
    <edge id="73.0" from="node_73_start" to="node_73_end" numLanes="1" speed="13.89" type="town" shape="790173.04,3298138.48 790287.16,3298193.56 790287.16,3298193.56 790369.60,3298232.66 790369.60,3298232.66 790467.30,3298268.70 790467.30,3298268.70 790522.00,3298287.26 790522.00,3298287.26 790549.49,3298295.83 790549.49,3298295.83 790577.15,3298303.73">
        <lane index="0" width="3.66" />
    </edge>
    <edge id="75.0" from="junction_106" to="node_75_end" numLanes="4" speed="13.89" type="town" shape="792589.75,3298148.57 792635.41,3298141.91 792635.41,3298141.91 792682.32,3298135.94 792682.32,3298135.94 792686.91,3298135.43">
        <lane index="0" width="3.66" />
        <lane index="1" width="3.66" />
        <lane index="2" width="3.66" />
        <lane index="3" width="3.66" type="shoulder" disallow="all" />
    </edge>
    <edge id="76.0" from="node_2_end" to="j_merge_start_47" numLanes="4" speed="13.89" type="town" shape="790555.76,3298317.25 790598.06,3298327.35 790598.06,3298327.35 790640.55,3298336.77 790640.55,3298336.77 790647.79,3298338.26">
        <lane index="0" width="3.66" />
        <lane index="1" width="3.66" />
        <lane index="2" width="3.66" />
        <lane index="3" width="3.66" type="shoulder" disallow="all" />
    </edge>
    <edge id="80.0" from="node_73_end" to="j_merge_start_47" numLanes="1" speed="13.89" type="town" shape="790577.15,3298303.73 790613.86,3298314.54 790613.86,3298314.54 790650.81,3298323.65">
        <lane index="0" width="3.66" />
    </edge>
    <edge id="81.0" from="node_75_end" to="junction_63" numLanes="5" speed="13.89" type="town" shape="792686.91,3298135.43 792707.88,3298133.07 792707.88,3298133.07 792735.36,3298130.35 792735.36,3298130.35 792761.88,3298127.90 792761.88,3298127.90 792788.90,3298125.76 792788.90,3298125.76 792838.64,3298122.63 792838.64,3298122.63 792888.48,3298120.40 792888.48,3298120.40 792938.69,3298119.29 792938.69,3298119.29 792989.15,3298119.03 792989.15,3298119.03 793013.64,3298119.32 793013.64,3298119.32 793038.22,3298119.86 793038.22,3298119.86 793062.67,3298120.57 793062.67,3298120.57 793087.40,3298121.48 793087.40,3298121.48 793184.69,3298125.78 793184.69,3298125.78 793282.53,3298130.18 793282.53,3298130.18 793340.34,3298132.66">
        <lane index="0" width="3.66" type="shoulder" disallow="all" />
        <lane index="1" width="3.66" />
        <lane index="2" width="3.66" />
        <lane index="3" width="3.66" />
        <lane index="4" width="3.66" type="shoulder" disallow="all" />
    </edge>
    <edge id="84.0" from="junction_106" to="node_72_start" numLanes="1" speed="13.89" type="town" shape="792587.28,3298133.79 792590.83,3298133.07 792590.83,3298133.07 792594.39,3298132.34 792594.39,3298132.34 792597.94,3298131.62 792597.94,3298131.62 792601.49,3298130.89 792601.49,3298130.89 792605.05,3298130.17 792605.05,3298130.17 792608.60,3298129.44 792608.60,3298129.44 792612.15,3298128.72 792612.15,3298128.72 792615.70,3298127.99 792615.70,3298127.99 792619.25,3298127.25 792619.25,3298127.25 792622.80,3298126.52 792622.80,3298126.52 792626.35,3298125.78 792626.35,3298125.78 792629.90,3298125.04 792629.90,3298125.04 792633.45,3298124.30 792633.45,3298124.30 792637.00,3298123.55 792637.00,3298123.55 792640.54,3298122.80 792640.54,3298122.80 792644.09,3298122.04 792644.09,3298122.04 792647.63,3298121.27">
        <lane index="0" width="3.66" />
    </edge>
    <edge id="854.0" from="j_merge_end_47" to="node_854_end" numLanes="5" speed="13.89" type="town" shape="790860.86,3298374.99 790900.34,3298380.07 790900.34,3298380.07 790944.68,3298385.06 790944.68,3298385.06 790989.23,3298389.34 790989.23,3298389.34 791039.48,3298393.40 791039.48,3298393.40 791066.42,3298395.27 791066.42,3298395.27 791089.51,3298396.56 791089.51,3298396.56 791130.90,3298398.39 791130.90,3298398.39 791172.77,3298400.07 791172.77,3298400.07 791216.48,3298400.75 791216.48,3298400.75 791260.14,3298400.85 791260.14,3298400.85 791283.08,3298400.72 791283.08,3298400.72 791305.99,3298400.24 791305.99,3298400.24 791351.90,3298399.06 791351.90,3298399.06 791399.04,3298396.72 791399.04,3298396.72 791445.70,3298393.85 791445.70,3298393.85 791494.48,3298390.08 791494.48,3298390.08 791543.15,3298385.43 791543.15,3298385.43 791588.18,3298380.35 791588.18,3298380.35 791633.02,3298374.62 791633.02,3298374.62 791656.87,3298371.36 791656.87,3298371.36 791681.49,3298367.66 791681.49,3298367.66 791729.85,3298359.77 791729.85,3298359.77 791777.78,3298351.22 791777.78,3298351.22 791825.65,3298341.77 791825.65,3298341.77 791871.84,3298331.83 791871.84,3298331.83 791917.97,3298321.09 791917.97,3298321.09 791966.27,3298309.08 791966.27,3298309.08 792014.64,3298296.14 792014.64,3298296.14 792061.41,3298282.72 792061.41,3298282.72 792107.95,3298268.72 792107.95,3298268.72 792194.27,3298242.36 792194.27,3298242.36 792229.27,3298231.89">
        <lane index="0" width="3.66" type="shoulder" disallow="all" />
        <lane index="1" width="3.66" />
        <lane index="2" width="3.66" />
        <lane index="3" width="3.66" />
        <lane index="4" width="3.66" type="shoulder" disallow="all" />
    </edge>
    <edge id="855.0" from="node_854_end" to="junction_106" numLanes="5" speed="13.89" type="town" shape="792229.27,3298231.89 792285.49,3298215.08 792285.49,3298215.08 792311.33,3298207.87 792311.33,3298207.87 792337.54,3298200.87 792337.54,3298200.87 792390.89,3298187.50 792390.89,3298187.50 792440.24,3298176.35 792440.24,3298176.35 792457.91,3298172.68">
        <lane index="0" width="3.66" type="shoulder" disallow="all" />
        <lane index="1" width="3.66" />
        <lane index="2" width="3.66" />
        <lane index="3" width="3.66" />
        <lane index="4" width="3.66" type="shoulder" disallow="all" />
    </edge>
    <edge id="30.0" from="junction_62" to="node_30_end" numLanes="1" speed="13.89" type="town" shape="797308.52,3298068.31 797331.67,3298063.74 797331.67,3298063.74 797344.00,3298061.06 797344.00,3298061.06 797384.86,3298051.83 797384.86,3298051.83 797406.69,3298045.86 797406.69,3298045.86 797427.81,3298038.18">
        <lane index="0" width="3.66" />
    </edge>
    <edge id="merge_zone_7" from="j_merge_start_7" to="j_merge_end_7" numLanes="5" speed="13.89" name="Merge zone 7" type="highway_merge" shape="794447.05,3298171.73 794685.54,3298180.01">
        <lane index="0" width="3.66" />
        <lane index="1" width="3.66" />
        <lane index="2" width="3.66" />
        <lane index="3" width="3.66" />
        <lane index="4" width="3.66" type="shoulder" disallow="all" />
    </edge>
    <edge id="merge_zone_6" from="j_merge_start_6" to="j_merge_end_6" numLanes="5" speed="13.89" name="Merge zone 6" type="highway_merge" shape="795564.01,3298210.77 795770.53,3298217.94">
        <lane index="0" width="3.66" />
        <lane index="1" width="3.66" />
        <lane index="2" width="3.66" />
        <lane index="3" width="3.66" />
        <lane index="4" width="3.66" type="shoulder" disallow="all" />
    </edge>
    <edge id="merge_zone_47" from="j_merge_start_47" to="j_merge_end_47" numLanes="5" speed="13.89" name="Merge zone 47" type="highway_merge" shape="790725.98,3298353.71 790725.98,3298353.71 790769.15,3298361.23 790769.15,3298361.23 790812.69,3298368.15">
        <lane index="0" width="3.66" />
        <lane index="1" width="3.66" />
        <lane index="2" width="3.66" />
        <lane index="3" width="3.66" />
        <lane index="4" width="3.66" type="shoulder" disallow="all" />
    </edge>
</edges>