<?xml version="1.0" encoding="UTF-8"?>

<!-- generated on 2025-10-19 17:35:18 by Eclipse SUMO netconvert Version 1.23.1
<netconvertConfiguration xmlns:xsi="http://www.w3.org/2001/XMLSchema-instance" xsi:noNamespaceSchemaLocation="http://sumo.dlr.de/xsd/netconvertConfiguration.xsd">

    <input>
        <node-files value="/home/sdai/harry/TeraSim/jupiter/eb/jupiter_eb_tiles/tile_0154/tile_0154.nod.xml"/>
        <edge-files value="/home/sdai/harry/TeraSim/jupiter/eb/jupiter_eb_tiles/tile_0154/tile_0154.edg.xml"/>
    </input>

    <output>
        <output-file value="/home/sdai/harry/TeraSim/jupiter/eb/jupiter_eb_tiles/tile_0154/tile_0154.net.xml"/>
        <output.street-names value="true"/>
        <output.original-names value="true"/>
    </output>

    <processing>
        <geometry.remove value="false"/>
        <geometry.min-dist value="0.5"/>
        <edges.join value="false"/>
    </processing>

    <junctions>
        <no-internal-links value="false"/>
        <no-turnarounds value="true"/>
        <junctions.join value="true"/>
        <junctions.join-dist value="10"/>
        <junctions.corner-detail value="5"/>
        <junctions.internal-link-detail value="5"/>
        <junctions.limit-turn-speed value="5.5"/>
        <rectangular-lane-cut value="true"/>
        <check-lane-foes.all value="true"/>
    </junctions>

</netconvertConfiguration>
-->

<net version="1.20" junctionCornerDetail="5" junctionLinkDetail="5" rectangularLaneCut="true" limitTurnSpeed="5.50" checkLaneFoesAll="1" xmlns:xsi="http://www.w3.org/2001/XMLSchema-instance" xsi:noNamespaceSchemaLocation="http://sumo.dlr.de/xsd/net_file.xsd">

    <location netOffset="-805195.24,-3298283.86" convBoundary="0.00,0.00,208.34,8.65" origBoundary="0.00,0.00,805403.57,3298292.51" projParameter="!"/>

    <edge id=":node_18_start_0" function="internal">
        <lane id=":node_18_start_0_0" index="0" speed="13.89" length="8.78" width="3.66" shape="113.10,-7.46 115.60,-7.94 117.16,-9.14 118.71,-10.35 121.22,-10.83"/>
        <lane id=":node_18_start_0_1" index="1" speed="13.89" length="8.78" width="3.66" shape="112.97,-3.80 115.47,-4.28 117.03,-5.48 118.58,-6.69 121.09,-7.17"/>
        <lane id=":node_18_start_0_2" index="2" speed="13.89" length="8.78" width="3.66" shape="112.83,-0.14 115.34,-0.62 116.90,-1.83 118.46,-3.03 120.96,-3.52"/>
        <lane id=":node_18_start_0_3" index="3" speed="13.89" length="8.78" width="3.66" shape="112.83,-0.14 120.84,0.14"/>
    </edge>

    <edge id="18.0" from="node_18_start" to="node_18_end" priority="-1" type="town">
        <lane id="18.0_0" index="0" speed="13.89" length="87.74" width="3.66" shape="121.22,-10.83 208.90,-7.81"/>
        <lane id="18.0_1" index="1" speed="13.89" length="87.74" width="3.66" shape="121.09,-7.17 208.78,-4.15"/>
        <lane id="18.0_2" index="2" speed="13.89" length="87.74" width="3.66" shape="120.96,-3.52 208.65,-0.49"/>
        <lane id="18.0_3" index="3" speed="13.89" length="87.74" width="3.66" shape="120.84,0.14 208.53,3.16"/>
        <lane id="18.0_4" index="4" disallow="all" speed="13.89" length="87.74" width="3.66" shape="120.71,3.80 208.40,6.82" type="shoulder"/>
    </edge>
    <edge id="71.0" from="node_71_start" to="node_18_start" priority="-1" type="town" shape="0.00,0.00 29.33,1.88 76.17,4.03 116.64,5.49">
        <lane id="71.0_0" index="0" speed="13.89" length="112.56" width="3.66" shape="0.82,-12.78 30.04,-10.91 76.70,-8.77 113.10,-7.46"/>
        <lane id="71.0_1" index="1" speed="13.89" length="112.56" width="3.66" shape="0.59,-9.13 29.84,-7.26 76.55,-5.11 112.97,-3.80"/>
        <lane id="71.0_2" index="2" speed="13.89" length="112.56" width="3.66" shape="0.35,-5.48 29.63,-3.60 76.40,-1.46 112.83,-0.14"/>
        <lane id="71.0_3" index="3" disallow="all" speed="13.89" length="112.56" width="3.66" shape="0.12,-1.83 29.43,0.05 76.25,2.20 112.70,3.52" type="shoulder"/>
    </edge>

    <junction id="node_18_end" type="dead_end" x="208.34" y="8.65" incLanes="18.0_0 18.0_1 18.0_2 18.0_3 18.0_4" intLanes="" shape="208.97,-9.64 208.46,4.99"/>
    <junction id="node_18_start" type="priority" x="116.64" y="5.49" incLanes="71.0_0 71.0_1 71.0_2 71.0_3" intLanes=":node_18_start_0_0 :node_18_start_0_1 :node_18_start_0_2 :node_18_start_0_3" shape="120.77,1.97 121.28,-12.66 118.20,-11.82 116.24,-10.12 114.99,-9.49 113.16,-9.29 112.77,1.69">
        <request index="0" response="0000" foes="0000" cont="0"/>
        <request index="1" response="0000" foes="0000" cont="0"/>
        <request index="2" response="0000" foes="0000" cont="0"/>
        <request index="3" response="0000" foes="0000" cont="0"/>
    </junction>
    <junction id="node_71_start" type="dead_end" x="0.00" y="0.00" incLanes="" intLanes="" shape="0.23,-3.65 0.94,-14.61"/>

    <connection from="71.0" to="18.0" fromLane="0" toLane="0" via=":node_18_start_0_0" dir="s" state="M"/>
    <connection from="71.0" to="18.0" fromLane="1" toLane="1" via=":node_18_start_0_1" dir="s" state="M"/>
    <connection from="71.0" to="18.0" fromLane="2" toLane="2" via=":node_18_start_0_2" dir="s" state="M"/>
    <connection from="71.0" to="18.0" fromLane="2" toLane="3" via=":node_18_start_0_3" dir="s" state="M"/>

    <connection from=":node_18_start_0" to="18.0" fromLane="0" toLane="0" dir="s" state="M"/>
    <connection from=":node_18_start_0" to="18.0" fromLane="1" toLane="1" dir="s" state="M"/>
    <connection from=":node_18_start_0" to="18.0" fromLane="2" toLane="2" dir="s" state="M"/>
    <connection from=":node_18_start_0" to="18.0" fromLane="3" toLane="3" dir="s" state="M"/>

</net>
