<?xml version="1.0" encoding="UTF-8"?>

<!-- generated on 2025-08-23 17:13:01 by Eclipse SUMO netconvert Version 1.23.1
<netconvertConfiguration xmlns:xsi="http://www.w3.org/2001/XMLSchema-instance" xsi:noNamespaceSchemaLocation="http://sumo.dlr.de/xsd/netconvertConfiguration.xsd">

    <input>
        <node-files value="Town01_converted.nod.xml"/>
        <edge-files value="Town01_converted.edg.xml"/>
        <connection-files value="Town01_converted.con.xml"/>
    </input>

    <output>
        <output-file value="Town01_final.net.xml"/>
        <output.street-names value="true"/>
    </output>

    <junctions>
        <no-turnarounds value="true"/>
        <junctions.join value="true"/>
    </junctions>

    <report>
        <verbose value="true"/>
    </report>

</netconvertConfiguration>
-->

<net version="1.20" junctionCornerDetail="5" limitTurnSpeed="5.50" xmlns:xsi="http://www.w3.org/2001/XMLSchema-instance" xsi:noNamespaceSchemaLocation="http://sumo.dlr.de/xsd/net_file.xsd">

    <location netOffset="0.03,328.61" convBoundary="0.00,0.00,394.41,328.63" origBoundary="-0.03,-328.61,394.38,0.05" projParameter="!"/>

    <edge id=":junction_111_0" function="internal">
        <lane id=":junction_111_0_0" index="0" speed="6.59" length="8.95" shape="332.04,278.03 331.53,275.66 330.38,273.99 328.58,273.01 326.14,272.73"/>
    </edge>
    <edge id=":junction_111_1" function="internal">
        <lane id=":junction_111_1_0" index="0" speed="13.89" length="14.11" shape="332.04,278.03 331.55,263.93"/>
    </edge>
    <edge id=":junction_111_2" function="internal">
        <lane id=":junction_111_2_0" index="0" speed="13.89" length="13.89" shape="334.75,263.92 335.23,277.80"/>
    </edge>
    <edge id=":junction_111_3" function="internal">
        <lane id=":junction_111_3_0" index="0" speed="8.01" length="3.82" shape="334.75,263.92 334.21,267.70"/>
    </edge>
    <edge id=":junction_111_6" function="internal">
        <lane id=":junction_111_6_0" index="0" speed="8.01" length="10.15" shape="334.21,267.70 332.60,270.43 329.91,272.10 326.14,272.73"/>
    </edge>
    <edge id=":junction_111_4" function="internal">
        <lane id=":junction_111_4_0" index="0" speed="6.51" length="8.89" shape="326.07,269.53 328.47,269.13 330.18,268.07 331.21,266.33 331.55,263.93"/>
    </edge>
    <edge id=":junction_111_5" function="internal">
        <lane id=":junction_111_5_0" index="0" speed="8.07" length="13.94" shape="326.07,269.53 329.86,269.97 332.65,271.50 334.44,274.11 335.23,277.80"/>
    </edge>
    <edge id=":junction_128_0" function="internal">
        <lane id=":junction_128_0_0" index="0" speed="6.51" length="9.03" shape="101.30,132.94 98.85,133.29 97.10,134.34 96.05,136.09 95.70,138.54"/>
    </edge>
    <edge id=":junction_128_1" function="internal">
        <lane id=":junction_128_1_0" index="0" speed="8.07" length="14.15" shape="101.30,132.94 97.46,132.40 94.68,130.78 92.96,128.07 92.31,124.28"/>
    </edge>
    <edge id=":junction_128_2" function="internal">
        <lane id=":junction_128_2_0" index="0" speed="6.59" length="9.10" shape="95.50,124.19 95.93,126.62 97.03,128.36 98.82,129.40 101.30,129.74"/>
    </edge>
    <edge id=":junction_128_3" function="internal">
        <lane id=":junction_128_3_0" index="0" speed="13.89" length="14.35" shape="95.50,124.19 95.70,138.54"/>
    </edge>
    <edge id=":junction_128_4" function="internal">
        <lane id=":junction_128_4_0" index="0" speed="13.89" length="14.26" shape="92.50,138.54 92.31,124.28"/>
    </edge>
    <edge id=":junction_128_5" function="internal">
        <lane id=":junction_128_5_0" index="0" speed="8.00" length="3.89" shape="92.50,138.54 93.05,134.69"/>
    </edge>
    <edge id=":junction_128_6" function="internal">
        <lane id=":junction_128_6_0" index="0" speed="8.00" length="10.30" shape="93.05,134.69 94.70,131.95 97.45,130.30 101.30,129.74"/>
    </edge>
    <edge id=":junction_139_0" function="internal">
        <lane id=":junction_139_0_0" index="0" speed="6.50" length="9.03" shape="331.52,203.90 331.17,201.45 330.12,199.70 328.37,198.66 325.92,198.32"/>
    </edge>
    <edge id=":junction_139_1" function="internal">
        <lane id=":junction_139_1_0" index="0" speed="13.89" length="14.40" shape="331.52,203.90 331.52,189.50"/>
    </edge>
    <edge id=":junction_139_2" function="internal">
        <lane id=":junction_139_2_0" index="0" speed="13.89" length="14.40" shape="334.72,189.50 334.72,203.90"/>
    </edge>
    <edge id=":junction_139_3" function="internal">
        <lane id=":junction_139_3_0" index="0" speed="8.01" length="4.06" shape="334.72,189.50 334.17,193.35 334.08,193.50"/>
    </edge>
    <edge id=":junction_139_6" function="internal">
        <lane id=":junction_139_6_0" index="0" speed="8.01" length="10.14" shape="334.08,193.50 332.52,196.10 329.77,197.75 325.92,198.32"/>
    </edge>
    <edge id=":junction_139_4" function="internal">
        <lane id=":junction_139_4_0" index="0" speed="6.52" length="9.05" shape="325.91,195.12 328.36,194.76 330.12,193.70 331.17,191.95 331.52,189.50"/>
    </edge>
    <edge id=":junction_139_5" function="internal">
        <lane id=":junction_139_5_0" index="0" speed="8.00" length="14.21" shape="325.91,195.12 329.76,195.65 332.52,197.30 334.17,200.05 334.72,203.90"/>
    </edge>
    <edge id=":junction_156_0" function="internal">
        <lane id=":junction_156_0_0" index="0" speed="6.52" length="9.05" shape="101.31,199.15 98.86,199.51 97.10,200.57 96.05,202.32 95.69,204.77"/>
    </edge>
    <edge id=":junction_156_1" function="internal">
        <lane id=":junction_156_1_0" index="0" speed="7.99" length="14.21" shape="101.31,199.15 97.46,198.62 94.70,196.97 93.05,194.22 92.50,190.37"/>
    </edge>
    <edge id=":junction_156_2" function="internal">
        <lane id=":junction_156_2_0" index="0" speed="6.50" length="9.03" shape="95.70,190.37 96.05,192.82 97.10,194.57 98.85,195.61 101.30,195.95"/>
    </edge>
    <edge id=":junction_156_3" function="internal">
        <lane id=":junction_156_3_0" index="0" speed="13.89" length="14.40" shape="95.70,190.37 95.69,204.77"/>
    </edge>
    <edge id=":junction_156_4" function="internal">
        <lane id=":junction_156_4_0" index="0" speed="13.89" length="14.40" shape="92.49,204.77 92.50,190.37"/>
    </edge>
    <edge id=":junction_156_5" function="internal">
        <lane id=":junction_156_5_0" index="0" speed="8.01" length="4.06" shape="92.49,204.77 93.05,200.92 93.14,200.77"/>
    </edge>
    <edge id=":junction_156_6" function="internal">
        <lane id=":junction_156_6_0" index="0" speed="8.01" length="10.14" shape="93.14,200.77 94.70,198.17 97.45,196.52 101.30,195.95"/>
    </edge>
    <edge id=":junction_167_0" function="internal">
        <lane id=":junction_167_0_0" index="0" speed="6.66" length="9.04" shape="154.53,281.98 154.18,279.52 153.15,277.71 151.45,276.57 149.07,276.08"/>
    </edge>
    <edge id=":junction_167_1" function="internal">
        <lane id=":junction_167_1_0" index="0" speed="8.00" length="14.03" shape="154.53,281.98 155.05,278.18 156.66,275.44 159.36,273.75 163.14,273.13"/>
    </edge>
    <edge id=":junction_167_2" function="internal">
        <lane id=":junction_167_2_0" index="0" speed="6.51" length="8.93" shape="163.21,276.33 160.80,276.72 159.09,277.80 158.06,279.54 157.73,281.96"/>
    </edge>
    <edge id=":junction_167_3" function="internal">
        <lane id=":junction_167_3_0" index="0" speed="13.89" length="14.14" shape="163.21,276.33 149.07,276.08"/>
    </edge>
    <edge id=":junction_167_4" function="internal">
        <lane id=":junction_167_4_0" index="0" speed="13.89" length="13.89" shape="149.25,272.89 163.14,273.13"/>
    </edge>
    <edge id=":junction_167_5" function="internal">
        <lane id=":junction_167_5_0" index="0" speed="8.13" length="3.77" shape="149.25,272.89 152.94,273.64"/>
    </edge>
    <edge id=":junction_167_6" function="internal">
        <lane id=":junction_167_6_0" index="0" speed="8.13" length="10.20" shape="152.94,273.64 155.59,275.40 157.19,278.17 157.73,281.96"/>
    </edge>
    <edge id=":junction_184_0" function="internal">
        <lane id=":junction_184_0_0" index="0" speed="6.51" length="9.01" shape="101.15,273.35 98.69,273.56 96.89,274.50 95.74,276.18 95.25,278.60"/>
    </edge>
    <edge id=":junction_184_1" function="internal">
        <lane id=":junction_184_1_0" index="0" speed="8.14" length="14.10" shape="101.15,273.35 97.36,272.60 94.65,270.85 93.02,268.09 92.48,264.33"/>
    </edge>
    <edge id=":junction_184_2" function="internal">
        <lane id=":junction_184_2_0" index="0" speed="6.68" length="9.14" shape="95.68,264.33 96.03,266.76 97.09,268.54 98.86,269.67 101.34,270.15"/>
    </edge>
    <edge id=":junction_184_3" function="internal">
        <lane id=":junction_184_3_0" index="0" speed="13.89" length="14.28" shape="95.68,264.33 95.25,278.60"/>
    </edge>
    <edge id=":junction_184_4" function="internal">
        <lane id=":junction_184_4_0" index="0" speed="13.89" length="14.09" shape="92.05,278.41 92.48,264.33"/>
    </edge>
    <edge id=":junction_184_5" function="internal">
        <lane id=":junction_184_5_0" index="0" speed="8.00" length="3.88" shape="92.05,278.41 92.83,274.61"/>
    </edge>
    <edge id=":junction_184_6" function="internal">
        <lane id=":junction_184_6_0" index="0" speed="8.00" length="10.28" shape="92.83,274.61 94.64,271.97 97.47,270.48 101.34,270.15"/>
    </edge>
    <edge id=":junction_195_0" function="internal">
        <lane id=":junction_195_0_0" index="0" speed="6.77" length="9.29" shape="89.12,11.12 88.71,8.57 87.63,6.70 85.88,5.54 83.48,5.06"/>
    </edge>
    <edge id=":junction_195_1" function="internal">
        <lane id=":junction_195_1_0" index="0" speed="7.95" length="14.30" shape="89.12,11.12 89.57,7.21 91.16,4.42 93.91,2.74 97.80,2.18"/>
    </edge>
    <edge id=":junction_195_2" function="internal">
        <lane id=":junction_195_2_0" index="0" speed="6.45" length="9.03" shape="97.80,5.38 95.34,5.74 93.61,6.80 92.60,8.56 92.32,11.03"/>
    </edge>
    <edge id=":junction_195_3" function="internal">
        <lane id=":junction_195_3_0" index="0" speed="13.89" length="14.33" shape="97.80,5.38 83.48,5.06"/>
    </edge>
    <edge id=":junction_195_4" function="internal">
        <lane id=":junction_195_4_0" index="0" speed="13.89" length="14.18" shape="83.62,1.87 97.80,2.18"/>
    </edge>
    <edge id=":junction_195_5" function="internal">
        <lane id=":junction_195_5_0" index="0" speed="8.22" length="3.78" shape="83.62,1.87 87.34,2.59"/>
    </edge>
    <edge id=":junction_195_6" function="internal">
        <lane id=":junction_195_6_0" index="0" speed="8.22" length="10.40" shape="87.34,2.59 90.02,4.35 91.68,7.17 92.32,11.03"/>
    </edge>
    <edge id=":junction_26_0" function="internal">
        <lane id=":junction_26_0_0" index="0" speed="13.89" length="14.40" shape="163.58,326.67 149.18,326.67"/>
    </edge>
    <edge id=":junction_26_1" function="internal">
        <lane id=":junction_26_1_0" index="0" speed="8.02" length="4.06" shape="163.58,326.67 159.74,326.12 159.59,326.03"/>
    </edge>
    <edge id=":junction_26_6" function="internal">
        <lane id=":junction_26_6_0" index="0" speed="8.02" length="10.14" shape="159.59,326.03 156.99,324.47 155.33,321.71 154.75,317.86"/>
    </edge>
    <edge id=":junction_26_2" function="internal">
        <lane id=":junction_26_2_0" index="0" speed="6.53" length="9.06" shape="157.95,317.84 158.32,320.30 159.38,322.06 161.13,323.12 163.58,323.47"/>
    </edge>
    <edge id=":junction_26_3" function="internal">
        <lane id=":junction_26_3_0" index="0" speed="7.99" length="14.21" shape="157.95,317.84 157.43,321.70 155.79,324.46 153.04,326.12 149.18,326.67"/>
    </edge>
    <edge id=":junction_26_4" function="internal">
        <lane id=":junction_26_4_0" index="0" speed="6.49" length="9.03" shape="149.18,323.47 151.63,323.12 153.38,322.07 154.42,320.31 154.75,317.86"/>
    </edge>
    <edge id=":junction_26_5" function="internal">
        <lane id=":junction_26_5_0" index="0" speed="13.89" length="14.40" shape="149.18,323.47 163.58,323.47"/>
    </edge>
    <edge id=":junction_43_0" function="internal">
        <lane id=":junction_43_0_0" index="0" speed="13.89" length="14.07" shape="343.58,327.12 329.52,326.62"/>
    </edge>
    <edge id=":junction_43_1" function="internal">
        <lane id=":junction_43_1_0" index="0" speed="8.46" length="3.69" shape="343.58,327.12 339.98,326.30"/>
    </edge>
    <edge id=":junction_43_6" function="internal">
        <lane id=":junction_43_6_0" index="0" speed="8.46" length="10.53" shape="339.98,326.30 337.33,324.46 335.61,321.60 334.83,317.71"/>
    </edge>
    <edge id=":junction_43_2" function="internal">
        <lane id=":junction_43_2_0" index="0" speed="7.05" length="9.58" shape="338.02,317.49 338.54,320.15 339.68,322.12 341.44,323.37 343.81,323.93"/>
    </edge>
    <edge id=":junction_43_3" function="internal">
        <lane id=":junction_43_3_0" index="0" speed="7.88" length="14.46" shape="338.02,317.49 337.73,321.48 336.22,324.33 333.48,326.05 329.52,326.62"/>
    </edge>
    <edge id=":junction_43_4" function="internal">
        <lane id=":junction_43_4_0" index="0" speed="6.36" length="9.04" shape="329.51,323.42 331.99,323.06 333.70,321.99 334.65,320.21 334.83,317.71"/>
    </edge>
    <edge id=":junction_43_5" function="internal">
        <lane id=":junction_43_5_0" index="0" speed="13.89" length="14.31" shape="329.51,323.42 343.81,323.93"/>
    </edge>
    <edge id=":junction_60_0" function="internal">
        <lane id=":junction_60_0_0" index="0" speed="6.88" length="9.37" shape="343.73,4.78 341.35,5.33 339.62,6.56 338.55,8.47 338.14,11.06"/>
    </edge>
    <edge id=":junction_60_1" function="internal">
        <lane id=":junction_60_1_0" index="0" speed="13.89" length="14.28" shape="343.73,4.78 329.46,5.32"/>
    </edge>
    <edge id=":junction_60_2" function="internal">
        <lane id=":junction_60_2_0" index="0" speed="13.89" length="14.03" shape="329.46,2.12 343.48,1.59"/>
    </edge>
    <edge id=":junction_60_3" function="internal">
        <lane id=":junction_60_3_0" index="0" speed="7.95" length="3.82" shape="329.46,2.12 333.24,2.66"/>
    </edge>
    <edge id=":junction_60_6" function="internal">
        <lane id=":junction_60_6_0" index="0" speed="7.95" length="10.48" shape="333.24,2.66 333.35,2.68 336.10,4.35 337.69,7.15 338.14,11.06"/>
    </edge>
    <edge id=":junction_60_4" function="internal">
        <lane id=":junction_60_4_0" index="0" speed="6.45" length="9.03" shape="334.94,10.96 334.66,8.49 333.65,6.73 331.92,5.67 329.46,5.32"/>
    </edge>
    <edge id=":junction_60_5" function="internal">
        <lane id=":junction_60_5_0" index="0" speed="8.31" length="14.14" shape="334.94,10.96 335.57,7.11 337.20,4.26 339.84,2.42 343.48,1.59"/>
    </edge>
    <edge id=":junction_77_0" function="internal">
        <lane id=":junction_77_0_0" index="0" speed="13.89" length="14.21" shape="98.24,326.68 84.04,326.99"/>
    </edge>
    <edge id=":junction_77_1" function="internal">
        <lane id=":junction_77_1_0" index="0" speed="7.90" length="3.99" shape="98.24,326.68 94.30,326.12"/>
    </edge>
    <edge id=":junction_77_6" function="internal">
        <lane id=":junction_77_6_0" index="0" speed="7.90" length="10.44" shape="94.30,326.12 91.56,324.41 90.02,321.58 89.69,317.60"/>
    </edge>
    <edge id=":junction_77_2" function="internal">
        <lane id=":junction_77_2_0" index="0" speed="6.38" length="9.04" shape="92.89,317.80 93.09,320.28 94.05,322.06 95.77,323.13 98.24,323.48"/>
    </edge>
    <edge id=":junction_77_3" function="internal">
        <lane id=":junction_77_3_0" index="0" speed="8.33" length="14.23" shape="92.89,317.80 92.13,321.68 90.41,324.51 87.71,326.28 84.04,326.99"/>
    </edge>
    <edge id=":junction_77_4" function="internal">
        <lane id=":junction_77_4_0" index="0" speed="6.90" length="9.46" shape="83.90,323.79 86.30,323.31 88.06,322.12 89.20,320.22 89.69,317.60"/>
    </edge>
    <edge id=":junction_77_5" function="internal">
        <lane id=":junction_77_5_0" index="0" speed="13.89" length="14.35" shape="83.90,323.79 98.24,323.48"/>
    </edge>
    <edge id=":junction_94_0" function="internal">
        <lane id=":junction_94_0_0" index="0" speed="6.51" length="9.03" shape="331.51,138.49 331.16,136.04 330.11,134.29 328.36,133.24 325.91,132.89"/>
    </edge>
    <edge id=":junction_94_1" function="internal">
        <lane id=":junction_94_1_0" index="0" speed="13.89" length="14.35" shape="331.51,138.49 331.71,124.14"/>
    </edge>
    <edge id=":junction_94_2" function="internal">
        <lane id=":junction_94_2_0" index="0" speed="13.89" length="14.26" shape="334.91,124.23 334.71,138.49"/>
    </edge>
    <edge id=":junction_94_3" function="internal">
        <lane id=":junction_94_3_0" index="0" speed="8.08" length="3.85" shape="334.91,124.23 334.25,128.02"/>
    </edge>
    <edge id=":junction_94_6" function="internal">
        <lane id=":junction_94_6_0" index="0" speed="8.08" length="10.31" shape="334.25,128.02 332.54,130.72 329.75,132.35 325.91,132.89"/>
    </edge>
    <edge id=":junction_94_4" function="internal">
        <lane id=":junction_94_4_0" index="0" speed="6.60" length="9.10" shape="325.91,129.69 328.39,129.34 330.18,128.30 331.29,126.56 331.71,124.14"/>
    </edge>
    <edge id=":junction_94_5" function="internal">
        <lane id=":junction_94_5_0" index="0" speed="8.00" length="14.19" shape="325.91,129.69 329.76,130.24 332.51,131.89 334.16,134.64 334.71,138.49"/>
    </edge>
    <edge id=":node_0_0" function="internal">
        <lane id=":node_0_0_0" index="0" speed="6.51" length="4.14" shape="386.79,328.68 385.97,329.35 385.07,329.81 384.09,330.05 383.03,330.08"/>
    </edge>
    <edge id=":node_0_1" function="internal">
        <lane id=":node_0_1_0" index="0" speed="4.13" length="1.38" shape="383.27,326.88 383.63,326.88 383.95,326.80 384.25,326.64 384.53,326.42"/>
    </edge>
    <edge id=":node_10_0" function="internal">
        <lane id=":node_10_0_0" index="0" speed="4.12" length="1.40" shape="11.46,1.74 11.10,1.76 10.78,1.85 10.48,2.02 10.21,2.26"/>
    </edge>
    <edge id=":node_10_1" function="internal">
        <lane id=":node_10_1_0" index="0" speed="6.49" length="4.21" shape="7.85,0.10 8.65,-0.62 9.55,-1.12 10.53,-1.40 11.61,-1.46"/>
    </edge>
    <edge id=":node_15_0" function="internal">
        <lane id=":node_15_0_0" index="0" speed="4.13" length="1.37" shape="384.03,2.16 383.76,1.94 383.46,1.79 383.13,1.72 382.78,1.71"/>
    </edge>
    <edge id=":node_15_1" function="internal">
        <lane id=":node_15_1_0" index="0" speed="6.52" length="4.10" shape="382.53,-1.48 383.58,-1.46 384.56,-1.23 385.45,-0.78 386.27,-0.12"/>
    </edge>
    <edge id=":node_16_0" function="internal">
        <lane id=":node_16_0_0" index="0" speed="4.19" length="1.27" shape="392.78,11.41 392.75,11.09 392.66,10.79 392.51,10.52 392.30,10.27"/>
    </edge>
    <edge id=":node_16_1" function="internal">
        <lane id=":node_16_1_0" index="0" speed="6.62" length="3.82" shape="394.54,7.99 395.17,8.73 395.62,9.55 395.89,10.44 395.98,11.41"/>
    </edge>
    <edge id=":node_17_0" function="internal">
        <lane id=":node_17_0_0" index="0" speed="6.69" length="3.83" shape="396.01,317.44 395.97,318.56 395.80,319.33 395.38,320.01 394.61,320.83"/>
    </edge>
    <edge id=":node_17_1" function="internal">
        <lane id=":node_17_1_0" index="0" speed="4.23" length="1.28" shape="392.34,318.57 392.60,318.29 392.74,318.07 392.80,317.81 392.81,317.44"/>
    </edge>
    <edge id=":node_26_0" function="internal">
        <lane id=":node_26_0_0" index="0" speed="6.54" length="4.02" shape="-0.02,320.79 -0.71,320.03 -1.20,319.19 -1.50,318.25 -1.60,317.23"/>
    </edge>
    <edge id=":node_26_1" function="internal">
        <lane id=":node_26_1_0" index="0" speed="4.15" length="1.34" shape="1.60,317.23 1.63,317.57 1.73,317.88 1.90,318.16 2.13,318.42"/>
    </edge>
    <edge id=":node_31_0" function="internal">
        <lane id=":node_31_0_0" index="0" speed="4.27" length="1.20" shape="2.06,11.17 1.83,11.44 1.70,11.66 1.65,11.90 1.64,12.25"/>
    </edge>
    <edge id=":node_31_1" function="internal">
        <lane id=":node_31_1_0" index="0" speed="6.78" length="3.61" shape="-1.56,12.25 -1.53,11.19 -1.37,10.46 -0.99,9.82 -0.30,9.01"/>
    </edge>
    <edge id=":node_7_0" function="internal">
        <lane id=":node_7_0_0" index="0" speed="6.70" length="3.80" shape="12.44,330.17 11.33,330.18 10.55,330.04 9.86,329.66 9.01,328.94"/>
    </edge>
    <edge id=":node_7_1" function="internal">
        <lane id=":node_7_1_0" index="0" speed="4.23" length="1.27" shape="11.16,326.56 11.44,326.80 11.67,326.93 11.93,326.98 12.30,326.97"/>
    </edge>

    <edge id="0_backward" from="junction_43" to="node_0" name="Road 0" priority="-1">
        <lane id="0_backward_0" index="0" speed="13.89" length="39.57" shape="343.81,323.93 383.27,326.88"/>
    </edge>
    <edge id="0_forward" from="node_0" to="junction_43" name="Road 0" priority="-1">
        <lane id="0_forward_0" index="0" speed="13.89" length="39.57" shape="383.03,330.08 343.58,327.12"/>
    </edge>
    <edge id="10_backward" from="junction_111" to="junction_167" name="Road 10" priority="-1">
        <lane id="10_backward_0" index="0" speed="13.89" length="162.97" shape="326.14,272.73 163.21,276.33"/>
    </edge>
    <edge id="10_forward" from="junction_167" to="junction_111" name="Road 10" priority="-1">
        <lane id="10_forward_0" index="0" speed="13.89" length="162.97" shape="163.14,273.13 326.07,269.53"/>
    </edge>
    <edge id="11_backward" from="node_17" to="node_0" name="Road 11" priority="-1">
        <lane id="11_backward_0" index="0" speed="13.89" length="11.08" shape="394.61,320.83 386.79,328.68"/>
    </edge>
    <edge id="11_forward" from="node_0" to="node_17" name="Road 11" priority="-1">
        <lane id="11_forward_0" index="0" speed="13.89" length="11.08" shape="384.53,326.42 392.34,318.57"/>
    </edge>
    <edge id="12_backward" from="junction_94" to="junction_128" name="Road 12" priority="-1">
        <lane id="12_backward_0" index="0" speed="13.89" length="224.60" shape="325.91,132.89 101.30,132.94"/>
    </edge>
    <edge id="12_forward" from="junction_128" to="junction_94" name="Road 12" priority="-1">
        <lane id="12_forward_0" index="0" speed="13.89" length="224.60" shape="101.30,129.74 325.91,129.69"/>
    </edge>
    <edge id="13_backward" from="node_7" to="node_26" name="Road 13" priority="-1">
        <lane id="13_backward_0" index="0" speed="13.89" length="12.16" shape="9.01,328.94 -0.02,320.79"/>
    </edge>
    <edge id="13_forward" from="node_26" to="node_7" name="Road 13" priority="-1">
        <lane id="13_forward_0" index="0" speed="13.89" length="12.16" shape="2.13,318.42 11.16,326.56"/>
    </edge>
    <edge id="14_backward" from="node_15" to="node_16" name="Road 14" priority="-1">
        <lane id="14_backward_0" index="0" speed="13.89" length="11.58" shape="386.27,-0.12 394.54,7.99"/>
    </edge>
    <edge id="14_forward" from="node_16" to="node_15" name="Road 14" priority="-1">
        <lane id="14_forward_0" index="0" speed="13.89" length="11.58" shape="392.30,10.27 384.03,2.16"/>
    </edge>
    <edge id="15_backward" from="node_31" to="node_26" name="Road 15" priority="-1">
        <lane id="15_backward_0" index="0" speed="13.89" length="304.98" shape="1.64,12.25 1.60,317.23"/>
    </edge>
    <edge id="15_forward" from="node_26" to="node_31" name="Road 15" priority="-1">
        <lane id="15_forward_0" index="0" speed="13.89" length="304.98" shape="-1.60,317.23 -1.56,12.25"/>
    </edge>
    <edge id="16_backward" from="junction_111" to="junction_43" name="Road 16" priority="-1">
        <lane id="16_backward_0" index="0" speed="13.89" length="39.78" shape="335.23,277.80 338.02,317.49"/>
    </edge>
    <edge id="16_forward" from="junction_43" to="junction_111" name="Road 16" priority="-1">
        <lane id="16_forward_0" index="0" speed="13.89" length="39.78" shape="334.83,317.71 332.04,278.03"/>
    </edge>
    <edge id="17_backward" from="junction_139" to="junction_111" name="Road 17" priority="-1">
        <lane id="17_backward_0" index="0" speed="13.89" length="60.02" shape="334.72,203.90 334.75,263.92"/>
    </edge>
    <edge id="17_forward" from="junction_111" to="junction_139" name="Road 17" priority="-1">
        <lane id="17_forward_0" index="0" speed="13.89" length="60.02" shape="331.55,263.93 331.52,203.90"/>
    </edge>
    <edge id="18_backward" from="junction_94" to="junction_139" name="Road 18" priority="-1">
        <lane id="18_backward_0" index="0" speed="13.89" length="51.01" shape="334.71,138.49 334.72,189.50"/>
    </edge>
    <edge id="18_forward" from="junction_139" to="junction_94" name="Road 18" priority="-1">
        <lane id="18_forward_0" index="0" speed="13.89" length="51.01" shape="331.52,189.50 331.51,138.49"/>
    </edge>
    <edge id="19_backward" from="junction_60" to="junction_94" name="Road 19" priority="-1">
        <lane id="19_backward_0" index="0" speed="13.89" length="113.22" shape="338.14,11.06 334.91,124.23"/>
    </edge>
    <edge id="19_forward" from="junction_94" to="junction_60" name="Road 19" priority="-1">
        <lane id="19_forward_0" index="0" speed="13.89" length="113.22" shape="331.71,124.14 334.94,10.96"/>
    </edge>
    <edge id="1_backward" from="junction_26" to="junction_43" name="Road 1" priority="-1">
        <lane id="1_backward_0" index="0" speed="13.89" length="165.94" shape="163.58,323.47 329.51,323.42"/>
    </edge>
    <edge id="1_forward" from="junction_43" to="junction_26" name="Road 1" priority="-1">
        <lane id="1_forward_0" index="0" speed="13.89" length="165.94" shape="329.52,326.62 163.58,326.67"/>
    </edge>
    <edge id="20_backward" from="node_31" to="node_10" name="Road 20" priority="-1">
        <lane id="20_backward_0" index="0" speed="13.89" length="12.08" shape="-0.30,9.01 7.85,0.10"/>
    </edge>
    <edge id="20_forward" from="node_10" to="node_31" name="Road 20" priority="-1">
        <lane id="20_forward_0" index="0" speed="13.89" length="12.08" shape="10.21,2.26 2.06,11.17"/>
    </edge>
    <edge id="21_backward" from="junction_184" to="junction_77" name="Road 21" priority="-1">
        <lane id="21_backward_0" index="0" speed="13.89" length="39.26" shape="95.25,278.60 92.89,317.80"/>
    </edge>
    <edge id="21_forward" from="junction_77" to="junction_184" name="Road 21" priority="-1">
        <lane id="21_forward_0" index="0" speed="13.89" length="39.26" shape="89.69,317.60 92.05,278.41"/>
    </edge>
    <edge id="22_backward" from="junction_156" to="junction_184" name="Road 22" priority="-1">
        <lane id="22_backward_0" index="0" speed="13.89" length="59.56" shape="95.69,204.77 95.68,264.33"/>
    </edge>
    <edge id="22_forward" from="junction_184" to="junction_156" name="Road 22" priority="-1">
        <lane id="22_forward_0" index="0" speed="13.89" length="59.56" shape="92.48,264.33 92.49,204.77"/>
    </edge>
    <edge id="23_backward" from="junction_128" to="junction_156" name="Road 23" priority="-1">
        <lane id="23_backward_0" index="0" speed="13.89" length="51.83" shape="95.70,138.54 95.70,190.37"/>
    </edge>
    <edge id="23_forward" from="junction_156" to="junction_128" name="Road 23" priority="-1">
        <lane id="23_forward_0" index="0" speed="13.89" length="51.83" shape="92.50,190.37 92.50,138.54"/>
    </edge>
    <edge id="24_backward" from="junction_195" to="junction_128" name="Road 24" priority="-1">
        <lane id="24_backward_0" index="0" speed="13.89" length="113.21" shape="92.32,11.03 95.50,124.19"/>
    </edge>
    <edge id="24_forward" from="junction_128" to="junction_195" name="Road 24" priority="-1">
        <lane id="24_forward_0" index="0" speed="13.89" length="113.21" shape="92.31,124.28 89.12,11.12"/>
    </edge>
    <edge id="25_backward" from="junction_167" to="junction_26" name="Road 25" priority="-1">
        <lane id="25_backward_0" index="0" speed="13.89" length="35.88" shape="157.73,281.96 157.95,317.84"/>
    </edge>
    <edge id="25_forward" from="junction_26" to="junction_167" name="Road 25" priority="-1">
        <lane id="25_forward_0" index="0" speed="13.89" length="35.88" shape="154.75,317.86 154.53,281.98"/>
    </edge>
    <edge id="2_backward" from="junction_77" to="junction_26" name="Road 2" priority="-1">
        <lane id="2_backward_0" index="0" speed="13.89" length="50.94" shape="98.24,323.48 149.18,323.47"/>
    </edge>
    <edge id="2_forward" from="junction_26" to="junction_77" name="Road 2" priority="-1">
        <lane id="2_forward_0" index="0" speed="13.89" length="50.94" shape="149.18,326.67 98.24,326.68"/>
    </edge>
    <edge id="3_backward" from="node_7" to="junction_77" name="Road 3" priority="-1">
        <lane id="3_backward_0" index="0" speed="13.89" length="71.67" shape="12.30,326.97 83.90,323.79"/>
    </edge>
    <edge id="3_forward" from="junction_77" to="node_7" name="Road 3" priority="-1">
        <lane id="3_forward_0" index="0" speed="13.89" length="71.67" shape="84.04,326.99 12.44,330.17"/>
    </edge>
    <edge id="4_backward" from="junction_139" to="junction_156" name="Road 4" priority="-1">
        <lane id="4_backward_0" index="0" speed="13.89" length="224.60" shape="325.92,198.32 101.31,199.15"/>
    </edge>
    <edge id="4_forward" from="junction_156" to="junction_139" name="Road 4" priority="-1">
        <lane id="4_forward_0" index="0" speed="13.89" length="224.60" shape="101.30,195.95 325.91,195.12"/>
    </edge>
    <edge id="5_backward" from="junction_195" to="node_10" name="Road 5" priority="-1">
        <lane id="5_backward_0" index="0" speed="13.89" length="72.09" shape="83.48,5.06 11.46,1.74"/>
    </edge>
    <edge id="5_forward" from="node_10" to="junction_195" name="Road 5" priority="-1">