<?xml version='1.0' encoding='UTF-8'?>
<net version="1.20" junctionCornerDetail="5" limitTurnSpeed="5.50">
    <junction id="junction_94" type="traffic_light" x="-1.61" y="-196.19" incLanes="" intLanes="" shape="" />
    <junction id="junction_106" type="traffic_light" x="-1.37" y="-132.65" incLanes="" intLanes="" shape="" />
    <junction id="junction_172" type="traffic_light" x="-81.10" y="-134.15" incLanes="" intLanes="" shape="" />
    <junction id="junction_222" type="traffic_light" x="83.48" y="134.74" incLanes="" intLanes="" shape="" />
    <junction id="junction_257" type="traffic_light" x="78.88" y="3.32" incLanes="" intLanes="" shape="" />
    <junction id="junction_268" type="traffic_light" x="153.38" y="195.82" incLanes="" intLanes="" shape="" />
    <junction id="junction_298" type="traffic_light" x="84.42" y="193.17" incLanes="" intLanes="" shape="" />
    <junction id="junction_334" type="traffic_light" x="4.10" y="194.18" incLanes="" intLanes="" shape="" />
    <junction id="junction_363" type="traffic_light" x="-81.44" y="138.01" incLanes="" intLanes="" shape="" />
    <junction id="junction_422" type="traffic_light" x="-82.81" y="-3.74" incLanes="" intLanes="" shape="" />
    <junction id="junction_490" type="traffic_light" x="169.32" y="-65.02" incLanes="" intLanes="" shape="" />
    <junction id="junction_515" type="traffic_light" x="-46.72" y="-198.48" incLanes="" intLanes="" shape="" />
    <junction id="junction_524" type="traffic_light" x="14.01" y="16.44" incLanes="" intLanes="" shape="" />
    <junction id="junction_545" type="traffic_light" x="234.19" y="-2.21" incLanes="" intLanes="" shape="" />
    <junction id="junction_563" type="traffic_light" x="150.00" y="3.36" incLanes="" intLanes="" shape="" />
    <junction id="junction_575" type="traffic_light" x="43.51" y="-1.42" incLanes="" intLanes="" shape="" />
    <junction id="junction_584" type="traffic_light" x="8.12" y="-21.04" incLanes="" intLanes="" shape="" />
    <junction id="junction_594" type="traffic_light" x="16.72" y="-10.55" incLanes="" intLanes="" shape="" />
    <junction id="junction_604" type="traffic_light" x="2.60" y="136.47" incLanes="" intLanes="" shape="" />
    <junction id="junction_663" type="traffic_light" x="148.55" y="73.91" incLanes="" intLanes="" shape="" />
    <junction id="junction_678" type="traffic_light" x="-21.91" y="-6.27" incLanes="" intLanes="" shape="" />
    <junction id="junction_685" type="traffic_light" x="-14.64" y="-14.23" incLanes="" intLanes="" shape="" />
    <junction id="junction_695" type="traffic_light" x="-41.82" y="1.09" incLanes="" intLanes="" shape="" />
    <junction id="junction_702" type="traffic_light" x="231.75" y="-61.23" incLanes="" intLanes="" shape="" />
    <junction id="junction_731" type="traffic_light" x="2.35" y="43.47" incLanes="" intLanes="" shape="" />
    <junction id="junction_740" type="traffic_light" x="149.74" y="133.32" incLanes="" intLanes="" shape="" />
    <junction id="junction_751" type="traffic_light" x="-4.58" y="-42.12" incLanes="" intLanes="" shape="" />
    <junction id="junction_760" type="traffic_light" x="84.13" y="75.49" incLanes="" intLanes="" shape="" />
    <junction id="junction_775" type="traffic_light" x="-3.55" y="-166.59" incLanes="" intLanes="" shape="" />
    <junction id="junction_786" type="traffic_light" x="104.16" y="-60.82" incLanes="" intLanes="" shape="" />
    <junction id="junction_793" type="traffic_light" x="-143.83" y="1.61" incLanes="" intLanes="" shape="" />
    <junction id="junction_813" type="traffic_light" x="-143.84" y="-58.93" incLanes="" intLanes="" shape="" />
    <junction id="junction_825" type="traffic_light" x="-147.31" y="-103.70" incLanes="" intLanes="" shape="" />
    <junction id="junction_831" type="traffic_light" x="-12.57" y="17.38" incLanes="" intLanes="" shape="" />
    <junction id="node_0" type="priority" x="142.97" y="195.66" incLanes="" intLanes="" shape="" />
    <junction id="node_1" type="priority" x="94.93" y="196.87" incLanes="" intLanes="" shape="" />
    <junction id="node_2" type="priority" x="73.95" y="197.40" incLanes="" intLanes="" shape="" />
    <junction id="node_3" type="priority" x="20.33" y="198.74" incLanes="" intLanes="" shape="" />
    <junction id="node_4" type="priority" x="-12.11" y="199.56" incLanes="" intLanes="" shape="" />
    <junction id="node_5" type="priority" x="-79.79" y="148.58" incLanes="" intLanes="" shape="" />
    <junction id="node_6" type="priority" x="-79.96" y="126.89" incLanes="" intLanes="" shape="" />
    <junction id="node_7" type="priority" x="-79.64" y="8.14" incLanes="" intLanes="" shape="" />
    <junction id="node_8" type="priority" x="-79.56" y="-21.51" incLanes="" intLanes="" shape="" />
    <junction id="node_9" type="priority" x="-79.28" y="-123.93" incLanes="" intLanes="" shape="" />
    <junction id="node_10" type="priority" x="220.18" y="-4.06" incLanes="" intLanes="" shape="" />
    <junction id="node_11" type="priority" x="21.20" y="-0.38" incLanes="" intLanes="" shape="" />
    <junction id="node_12" type="priority" x="-5.22" y="-21.54" incLanes="" intLanes="" shape="" />
    <junction id="node_13" type="priority" x="7.98" y="25.84" incLanes="" intLanes="" shape="" />
    <junction id="node_14" type="priority" x="-10.03" y="-26.26" incLanes="" intLanes="" shape="" />
    <junction id="node_15" type="priority" x="93.80" y="134.51" incLanes="" intLanes="" shape="" />
    <junction id="node_16" type="priority" x="73.16" y="134.95" incLanes="" intLanes="" shape="" />
    <junction id="node_17" type="priority" x="16.91" y="136.16" incLanes="" intLanes="" shape="" />
    <junction id="node_18" type="priority" x="-11.14" y="136.76" incLanes="" intLanes="" shape="" />
    <junction id="node_19" type="priority" x="-67.12" y="137.96" incLanes="" intLanes="" shape="" />
    <junction id="node_20" type="priority" x="-96.56" y="138.59" incLanes="" intLanes="" shape="" />
    <junction id="node_21" type="priority" x="-147.28" y="-47.42" incLanes="" intLanes="" shape="" />
    <junction id="node_22" type="priority" x="-147.30" y="-76.14" incLanes="" intLanes="" shape="" />
    <junction id="node_23" type="priority" x="-95.39" y="-134.38" incLanes="" intLanes="" shape="" />
    <junction id="node_24" type="priority" x="-66.20" y="-133.72" incLanes="" intLanes="" shape="" />
    <junction id="node_25" type="priority" x="-16.59" y="-132.59" incLanes="" intLanes="" shape="" />
    <junction id="node_26" type="priority" x="-5.38" y="31.75" incLanes="" intLanes="" shape="" />
    <junction id="node_27" type="priority" x="-25.21" y="6.56" incLanes="" intLanes="" shape="" />
    <junction id="node_28" type="priority" x="-222.65" y="-103.48" incLanes="" intLanes="" shape="" />
    <junction id="node_29" type="priority" x="-282.87" y="-153.76" incLanes="" intLanes="" shape="" />
    <junction id="node_30" type="priority" x="0.88" y="126.21" incLanes="" intLanes="" shape="" />
    <junction id="node_31" type="priority" x="1.39" y="146.80" incLanes="" intLanes="" shape="" />
    <junction id="node_32" type="priority" x="2.32" y="184.27" incLanes="" intLanes="" shape="" />
    <junction id="node_33" type="priority" x="-0.32" y="-122.31" incLanes="" intLanes="" shape="" />
    <junction id="node_34" type="priority" x="-0.19" y="-143.05" incLanes="" intLanes="" shape="" />
    <junction id="node_35" type="priority" x="0.04" y="-179.79" incLanes="" intLanes="" shape="" />
    <junction id="node_36" type="priority" x="25.61" y="6.59" incLanes="" intLanes="" shape="" />
    <junction id="node_37" type="priority" x="3.84" y="20.86" incLanes="" intLanes="" shape="" />
    <junction id="node_38" type="priority" x="-2.95" y="21.17" incLanes="" intLanes="" shape="" />
    <junction id="node_39" type="priority" x="-59.94" y="309.82" incLanes="" intLanes="" shape="" />
    <junction id="node_40" type="priority" x="84.52" y="213.90" incLanes="" intLanes="" shape="" />
    <junction id="node_41" type="priority" x="83.84" y="145.06" incLanes="" intLanes="" shape="" />
    <junction id="node_42" type="priority" x="83.11" y="124.41" incLanes="" intLanes="" shape="" />
    <junction id="node_43" type="priority" x="-99.22" y="-17.50" incLanes="" intLanes="" shape="" />
    <junction id="node_44" type="priority" x="-131.73" y="-50.37" incLanes="" intLanes="" shape="" />
    <junction id="node_45" type="priority" x="92.00" y="-67.44" incLanes="" intLanes="" shape="" />
    <junction id="node_46" type="priority" x="26.10" y="-5.72" incLanes="" intLanes="" shape="" />
    <junction id="node_47" type="priority" x="221.00" y="-60.51" incLanes="" intLanes="" shape="" />
    <junction id="node_48" type="priority" x="179.99" y="-60.61" incLanes="" intLanes="" shape="" />
    <junction id="node_49" type="priority" x="159.05" y="-60.67" incLanes="" intLanes="" shape="" />
    <junction id="node_50" type="priority" x="-97.58" y="-264.79" incLanes="" intLanes="" shape="" />
    <junction id="node_51" type="priority" x="153.37" y="255.49" incLanes="" intLanes="" shape="" />
    <junction id="node_52" type="priority" x="78.33" y="256.56" incLanes="" intLanes="" shape="" />
    <junction id="node_53" type="priority" x="-225.96" y="3.61" incLanes="" intLanes="" shape="" />
    <junction id="node_54" type="priority" x="-168.58" y="-248.86" incLanes="" intLanes="" shape="" />
    <junction id="node_55" type="priority" x="-14.27" y="-167.01" incLanes="" intLanes="" shape="" />
    <junction id="node_56" type="priority" x="-49.83" y="-185.61" incLanes="" intLanes="" shape="" />
    <junction id="node_57" type="priority" x="92.07" y="-52.83" incLanes="" intLanes="" shape="" />
    <junction id="node_58" type="priority" x="-67.32" y="1.21" incLanes="" intLanes="" shape="" />
    <junction id="node_59" type="priority" x="-95.80" y="1.36" incLanes="" intLanes="" shape="" />
    <junction id="node_60" type="priority" x="-157.44" y="1.68" incLanes="" intLanes="" shape="" />
    <junction id="node_61" type="priority" x="-286.23" y="84.35" incLanes="" intLanes="" shape="" />
    <junction id="node_62" type="priority" x="163.86" y="202.65" incLanes="" intLanes="" shape="" />
    <junction id="node_63" type="priority" x="240.62" y="10.12" incLanes="" intLanes="" shape="" />
    <junction id="node_64" type="priority" x="240.02" y="-14.48" incLanes="" intLanes="" shape="" />
    <junction id="node_65" type="priority" x="239.14" y="-50.62" incLanes="" intLanes="" shape="" />
    <junction id="node_66" type="priority" x="238.60" y="-72.65" incLanes="" intLanes="" shape="" />
    <junction id="node_67" type="priority" x="10.18" y="-202.26" incLanes="" intLanes="" shape="" />
    <junction id="node_68" type="priority" x="-13.36" y="-202.31" incLanes="" intLanes="" shape="" />
    <junction id="node_69" type="priority" x="-33.21" y="-203.29" incLanes="" intLanes="" shape="" />
    <junction id="node_70" type="priority" x="-64.69" y="-195.05" incLanes="" intLanes="" shape="" />
    <junction id="node_71" type="priority" x="-83.39" y="-144.53" incLanes="" intLanes="" shape="" />
    <junction id="node_72" type="priority" x="253.54" y="299.07" incLanes="" intLanes="" shape="" />
    <junction id="node_73" type="priority" x="153.62" y="212.52" incLanes="" intLanes="" shape="" />
    <junction id="node_74" type="priority" x="153.14" y="184.37" incLanes="" intLanes="" shape="" />
    <junction id="node_75" type="priority" x="153.01" y="177.18" incLanes="" intLanes="" shape="" />
    <junction id="node_76" type="priority" x="150.19" y="14.99" incLanes="" intLanes="" shape="" />
    <junction id="node_77" type="priority" x="13.97" y="-132.64" incLanes="" intLanes="" shape="" />
    <junction id="node_78" type="priority" x="93.85" y="-58.11" incLanes="" intLanes="" shape="" />
    <edge id="edge_0" from="node_0" to="node_1">
        <lane id="edge_0_0" index="0" speed="13.89" length="100.00" width="3.50" shape="143.11,200.91 137.10,201.06 131.09,201.21 125.09,201.36 119.08,201.51 113.08,201.66 107.07,201.82 101.07,201.97 95.06,202.12" />
        <lane id="edge_0_1" index="1" speed="13.89" length="100.00" width="3.50" shape="143.02,197.41 137.01,197.56 131.01,197.71 125.00,197.86 119.00,198.01 112.99,198.17 106.98,198.32 100.98,198.47 94.97,198.62" />
        <lane id="edge_0_2" index="2" speed="13.89" length="100.00" width="3.50" shape="143.02,197.41 137.01,197.56 131.01,197.71 125.00,197.86 119.00,198.01 112.99,198.17 106.98,198.32 100.98,198.47 94.97,198.62" />
        <lane id="edge_0_3" index="3" speed="13.89" length="100.00" width="3.50" shape="143.02,197.41 137.01,197.56 131.01,197.71 125.00,197.86 119.00,198.01 112.99,198.17 106.98,198.32 100.98,198.47 94.97,198.62" />
        <lane id="edge_0_4" index="4" speed="13.89" length="100.00" width="3.50" shape="143.02,197.41 137.01,197.56 131.01,197.71 125.00,197.86 119.00,198.01 112.99,198.17 106.98,198.32 100.98,198.47 94.97,198.62" />
    </edge>
    <edge id="edge_1" from="node_2" to="node_3">
        <lane id="edge_1_0" index="0" speed="13.89" length="100.00" width="3.50" shape="74.08,202.64 68.12,202.79 62.17,202.94 56.21,203.09 50.25,203.24 44.29,203.39 38.33,203.54 32.37,203.69 26.42,203.84 20.46,203.99" />
        <lane id="edge_1_1" index="1" speed="13.89" length="100.00" width="3.50" shape="73.99,199.15 68.04,199.30 62.08,199.45 56.12,199.59 50.16,199.74 44.20,199.89 38.24,200.04 32.29,200.19 26.33,200.34 20.37,200.49" />
        <lane id="edge_1_2" index="2" speed="13.89" length="100.00" width="3.50" shape="73.99,199.15 68.04,199.30 62.08,199.45 56.12,199.59 50.16,199.74 44.20,199.89 38.24,200.04 32.29,200.19 26.33,200.34 20.37,200.49" />
        <lane id="edge_1_3" index="3" speed="13.89" length="100.00" width="3.50" shape="73.99,199.15 68.04,199.30 62.08,199.45 56.12,199.59 50.16,199.74 44.20,199.89 38.24,200.04 32.29,200.19 26.33,200.34 20.37,200.49" />
        <lane id="edge_1_4" index="4" speed="13.89" length="100.00" width="3.50" shape="73.99,199.15 68.04,199.30 62.08,199.45 56.12,199.59 50.16,199.74 44.20,199.89 38.24,200.04 32.29,200.19 26.33,200.34 20.37,200.49" />
    </edge>
    <edge id="edge_2" from="node_4" to="node_5">
        <lane id="edge_2_0" index="0" speed="13.89" length="100.00" width="3.50" shape="-11.97,204.81 -18.40,204.97 -24.82,205.13 -31.24,205.29 -37.66,205.45 -44.08,205.61 -50.50,205.78 -53.13,205.74 -55.75,205.48 -58.34,205.02 -60.89,204.35 -63.37,203.47 -65.77,202.40 -68.07,201.13 -70.27,199.69 -72.34,198.07 -74.28,196.28 -76.06,194.35 -77.69,192.28 -79.14,190.08 -80.40,187.78 -81.48,185.38 -82.36,182.90 -83.03,180.36 -83.50,177.77 -83.76,175.15 -84.41,163.74 -84.55,161.24 -84.67,158.74 -84.78,156.23 -84.88,153.73 -84.97,151.22 -85.04,148.72" />
        <lane id="edge_2_1" index="1" speed="13.89" length="100.00" width="3.50" shape="-12.06,201.31 -18.48,201.47 -24.91,201.63 -31.33,201.79 -37.75,201.95 -44.17,202.12 -50.59,202.28 -52.94,202.24 -55.27,202.01 -57.59,201.60 -59.85,201.00 -62.07,200.22 -64.21,199.26 -66.27,198.13 -68.23,196.84 -70.08,195.40 -71.81,193.81 -73.40,192.08 -74.85,190.23 -76.14,188.28 -77.27,186.22 -78.23,184.08 -79.01,181.86 -79.62,179.60 -80.03,177.29 -80.26,174.95 -80.91,163.54 -81.05,161.06 -81.17,158.57 -81.28,156.08 -81.38,153.60 -81.47,151.11 -81.54,148.62" />
        <lane id="edge_2_2" index="2" speed="13.89" length="100.00" width="3.50" shape="-12.06,201.31 -18.48,201.47 -24.91,201.63 -31.33,201.79 -37.75,201.95 -44.17,202.12 -50.59,202.28 -52.94,202.24 -55.27,202.01 -57.59,201.60 -59.85,201.00 -62.07,200.22 -64.21,199.26 -66.27,198.13 -68.23,196.84 -70.08,195.40 -71.81,193.81 -73.40,192.08 -74.85,190.23 -76.14,188.28 -77.27,186.22 -78.23,184.08 -79.01,181.86 -79.62,179.60 -80.03,177.29 -80.26,174.95 -80.91,163.54 -81.05,161.06 -81.17,158.57 -81.28,156.08 -81.38,153.60 -81.47,151.11 -81.54,148.62" />
        <lane id="edge_2_3" index="3" speed="13.89" length="100.00" width="3.50" shape="-12.06,201.31 -18.48,201.47 -24.91,201.63 -31.33,201.79 -37.75,201.95 -44.17,202.12 -50.59,202.28 -52.94,202.24 -55.27,202.01 -57.59,201.60 -59.85,201.00 -62.07,200.22 -64.21,199.26 -66.27,198.13 -68.23,196.84 -70.08,195.40 -71.81,193.81 -73.40,192.08 -74.85,190.23 -76.14,188.28 -77.27,186.22 -78.23,184.08 -79.01,181.86 -79.62,179.60 -80.03,177.29 -80.26,174.95 -80.91,163.54 -81.05,161.06 -81.17,158.57 -81.28,156.08 -81.38,153.60 -81.47,151.11 -81.54,148.62" />
        <lane id="edge_2_4" index="4" speed="13.89" length="100.00" width="3.50" shape="-12.06,201.31 -18.48,201.47 -24.91,201.63 -31.33,201.79 -37.75,201.95 -44.17,202.12 -50.59,202.28 -52.94,202.24 -55.27,202.01 -57.59,201.60 -59.85,201.00 -62.07,200.22 -64.21,199.26 -66.27,198.13 -68.23,196.84 -70.08,195.40 -71.81,193.81 -73.40,192.08 -74.85,190.23 -76.14,188.28 -77.27,186.22 -78.23,184.08 -79.01,181.86 -79.62,179.60 -80.03,177.29 -80.26,174.95 -80.91,163.54 -81.05,161.06 -81.17,158.57 -81.28,156.08 -81.38,153.60 -81.47,151.11 -81.54,148.62" />
    </edge>
    <edge id="edge_3" from="node_6" to="node_7">
        <lane id="edge_3_0" index="0" speed="13.89" length="100.00" width="3.50" shape="-85.21,126.87 -85.20,121.48 -85.18,116.08 -85.17,110.68 -85.15,105.28 -85.14,99.89 -85.12,94.49 -85.11,89.09 -85.09,83.69 -85.08,78.29 -85.06,72.90 -85.05,67.50 -85.03,62.10 -85.02,56.70 -85.00,51.30 -84.99,45.91 -84.98,40.51 -84.96,35.11 -84.95,29.71 -84.93,24.32 -84.92,18.92 -84.90,13.52 -84.89,8.12" />
        <lane id="edge_3_1" index="1" speed="13.89" length="100.00" width="3.50" shape="-81.71,126.88 -81.70,121.49 -81.68,116.09 -81.67,110.69 -81.65,105.29 -81.64,99.89 -81.62,94.50 -81.61,89.10 -81.59,83.70 -81.58,78.30 -81.56,72.91 -81.55,67.51 -81.53,62.11 -81.52,56.71 -81.50,51.31 -81.49,45.92 -81.48,40.52 -81.46,35.12 -81.45,29.72 -81.43,24.32 -81.42,18.93 -81.40,13.53 -81.39,8.13" />
        <lane id="edge_3_2" index="2" speed="13.89" length="100.00" width="3.50" shape="-81.71,126.88 -81.70,121.49 -81.68,116.09 -81.67,110.69 -81.65,105.29 -81.64,99.89 -81.62,94.50 -81.61,89.10 -81.59,83.70 -81.58,78.30 -81.56,72.91 -81.55,67.51 -81.53,62.11 -81.52,56.71 -81.50,51.31 -81.49,45.92 -81.48,40.52 -81.46,35.12 -81.45,29.72 -81.43,24.32 -81.42,18.93 -81.40,13.53 -81.39,8.13" />
        <lane id="edge_3_3" index="3" speed="13.89" length="100.00" width="3.50" shape="-81.71,126.88 -81.70,121.49 -81.68,116.09 -81.67,110.69 -81.65,105.29 -81.64,99.89 -81.62,94.50 -81.61,89.10 -81.59,83.70 -81.58,78.30 -81.56,72.91 -81.55,67.51 -81.53,62.11 -81.52,56.71 -81.50,51.31 -81.49,45.92 -81.48,40.52 -81.46,35.12 -81.45,29.72 -81.43,24.32 -81.42,18.93 -81.40,13.53 -81.39,8.13" />
        <lane id="edge_3_4" index="4" speed="13.89" length="100.00" width="3.50" shape="-81.71,126.88 -81.70,121.49 -81.68,116.09 -81.67,110.69 -81.65,105.29 -81.64,99.89 -81.62,94.50 -81.61,89.10 -81.59,83.70 -81.58,78.30 -81.56,72.91 -81.55,67.51 -81.53,62.11 -81.52,56.71 -81.50,51.31 -81.49,45.92 -81.48,40.52 -81.46,35.12 -81.45,29.72 -81.43,24.32 -81.42,18.93 -81.40,13.53 -81.39,8.13" />
    </edge>
    <edge id="edge_4" from="node_8" to="node_9">
        <lane id="edge_4_0" index="0" speed="13.89" length="100.00" width="3.50" shape="-84.81,-21.52 -84.79,-26.91 -84.78,-32.30 -84.76,-37.69 -84.75,-43.08 -84.73,-48.47 -84.72,-53.87 -84.70,-59.26 -84.69,-64.65 -84.67,-70.04 -84.66,-75.43 -84.64,-80.82 -84.63,-86.21 -84.62,-91.60 -84.60,-96.99 -84.59,-102.38 -84.57,-107.77 -84.56,-113.16 -84.54,-118.55 -84.53,-123.95" />
        <lane id="edge_4_1" index="1" speed="13.89" length="100.00" width="3.50" shape="-81.31,-21.51 -81.29,-26.90 -81.28,-32.29 -81.26,-37.68 -81.25,-43.07 -81.23,-48.47 -81.22,-53.86 -81.20,-59.25 -81.19,-64.64 -81.17,-70.03 -81.16,-75.42 -81.14,-80.81 -81.13,-86.20 -81.12,-91.59 -81.10,-96.98 -81.09,-102.37 -81.07,-107.76 -81.06,-113.15 -81.04,-118.55 -81.03,-123.94" />
        <lane id="edge_4_2" index="2" speed="13.89" length="100.00" width="3.50" shape="-81.31,-21.51 -81.29,-26.90 -81.28,-32.29 -81.26,-37.68 -81.25,-43.07 -81.23,-48.47 -81.22,-53.86 -81.20,-59.25 -81.19,-64.64 -81.17,-70.03 -81.16,-75.42 -81.14,-80.81 -81.13,-86.20 -81.12,-91.59 -81.10,-96.98 -81.09,-102.37 -81.07,-107.76 -81.06,-113.15 -81.04,-118.55 -81.03,-123.94" />
        <lane id="edge_4_3" index="3" speed="13.89" length="100.00" width="3.50" shape="-81.31,-21.51 -81.29,-26.90 -81.28,-32.29 -81.26,-37.68 -81.25,-43.07 -81.23,-48.47 -81.22,-53.86 -81.20,-59.25 -81.19,-64.64 -81.17,-70.03 -81.16,-75.42 -81.14,-80.81 -81.13,-86.20 -81.12,-91.59 -81.10,-96.98 -81.09,-102.37 -81.07,-107.76 -81.06,-113.15 -81.04,-118.55 -81.03,-123.94" />
        <lane id="edge_4_4" index="4" speed="13.89" length="100.00" width="3.50" shape="-81.31,-21.51 -81.29,-26.90 -81.28,-32.29 -81.26,-37.68 -81.25,-43.07 -81.23,-48.47 -81.22,-53.86 -81.20,-59.25 -81.19,-64.64 -81.17,-70.03 -81.16,-75.42 -81.14,-80.81 -81.13,-86.20 -81.12,-91.59 -81.10,-96.98 -81.09,-102.37 -81.07,-107.76 -81.06,-113.15 -81.04,-118.55 -81.03,-123.94" />
    </edge>
    <edge id="edge_5" from="junction_545" to="node_10">
        <lane id="edge_5_0" index="0" speed="13.89" length="100.00" width="3.50" shape="227.25,1.09 220.26,1.19" />
        <lane id="edge_5_1" index="1" speed="13.89" length="100.00" width="3.50" shape="227.20,-2.41 220.21,-2.31" />
        <lane id="edge_5_2" index="2" speed="13.89" length="100.00" width="3.50" shape="227.20,-2.41 220.21,-2.31" />
        <lane id="edge_5_3" index="3" speed="13.89" length="100.00" width="3.50" shape="227.20,-2.41 220.21,-2.31" />
    </edge>
    <edge id="edge_6" from="node_10" to="junction_563">
        <lane id="edge_6_0" index="0" speed="13.89" length="100.00" width="3.50" shape="220.26,1.19 214.55,1.28 208.85,1.36 203.14,1.45 197.43,1.53 191.73,1.62 186.02,1.70 180.31,1.79 174.61,1.87 168.90,1.96 163.20,2.04 157.49,2.13" />
        <lane id="edge_6_1" index="1" speed="13.89" length="100.00" width="3.50" shape="220.21,-2.31 214.50,-2.22 208.79,-2.14 203.09,-2.05 197.38,-1.97 191.67,-1.88 185.97,-1.80 180.26,-1.71 174.56,-1.63 168.85,-1.54 163.14,-1.46 157.44,-1.37" />
        <lane id="edge_6_2" index="2" speed="13.89" length="100.00" width="3.50" shape="220.21,-2.31 214.50,-2.22 208.79,-2.14 203.09,-2.05 197.38,-1.97 191.67,-1.88 185.97,-1.80 180.26,-1.71 174.56,-1.63 168.85,-1.54 163.14,-1.46 157.44,-1.37" />
        <lane id="edge_6_3" index="3" speed="13.89" length="100.00" width="3.50" shape="220.21,-2.31 214.50,-2.22 208.79,-2.14 203.09,-2.05 197.38,-1.97 191.67,-1.88 185.97,-1.80 180.26,-1.71 174.56,-1.63 168.85,-1.54 163.14,-1.46 157.44,-1.37" />
        <lane id="edge_6_4" index="4" speed="13.89" length="100.00" width="3.50" shape="220.21,-2.31 214.50,-2.22 208.79,-2.14 203.09,-2.05 197.38,-1.97 191.67,-1.88 185.97,-1.80 180.26,-1.71 174.56,-1.63 168.85,-1.54 163.14,-1.46 157.44,-1.37" />
    </edge>
    <edge id="edge_7" from="junction_563" to="junction_257">
        <lane id="edge_7_0" index="0" speed="13.89" length="100.00" width="3.50" shape="142.47,2.35 136.86,2.44 131.25,2.52 125.64,2.60 120.03,2.69 114.42,2.77 108.81,2.86 103.20,2.94 97.59,3.02 91.98,3.11 86.37,3.19" />
        <lane id="edge_7_1" index="1" speed="13.89" length="100.00" width="3.50" shape="142.42,-1.15 136.81,-1.06 131.20,-0.98 125.59,-0.90 119.98,-0.81 114.37,-0.73 108.76,-0.64 103.15,-0.56 97.54,-0.48 91.93,-0.39 86.32,-0.31" />
        <lane id="edge_7_2" index="2" speed="13.89" length="100.00" width="3.50" shape="142.42,-1.15 136.81,-1.06 131.20,-0.98 125.59,-0.90 119.98,-0.81 114.37,-0.73 108.76,-0.64 103.15,-0.56 97.54,-0.48 91.93,-0.39 86.32,-0.31" />
        <lane id="edge_7_3" index="3" speed="13.89" length="100.00" width="3.50" shape="142.42,-1.15 136.81,-1.06 131.20,-0.98 125.59,-0.90 119.98,-0.81 114.37,-0.73 108.76,-0.64 103.15,-0.56 97.54,-0.48 91.93,-0.39 86.32,-0.31" />
        <lane id="edge_7_4" index="4" speed="13.89" length="100.00" width="3.50" shape="142.42,-1.15 136.81,-1.06 131.20,-0.98 125.59,-0.90 119.98,-0.81 114.37,-0.73 108.76,-0.64 103.15,-0.56 97.54,-0.48 91.93,-0.39 86.32,-0.31" />
    </edge>
    <edge id="edge_8" from="junction_257" to="junction_575">
        <lane id="edge_8_0" index="0" speed="13.89" length="100.00" width="3.50" shape="71.30,3.42 64.62,3.52 57.95,3.61 51.27,3.71 44.59,3.81" />
        <lane id="edge_8_1" index="1" speed="13.89" length="100.00" width="3.50" shape="71.25,-0.08 64.57,0.02 57.89,0.12 51.21,0.22 44.54,0.31" />
        <lane id="edge_8_2" index="2" speed="13.89" length="100.00" width="3.50" shape="71.25,-0.08 64.57,0.02 57.89,0.12 51.21,0.22 44.54,0.31" />
        <lane id="edge_8_3" index="3" speed="13.89" length="100.00" width="3.50" shape="71.25,-0.08 64.57,0.02 57.89,0.12 51.21,0.22 44.54,0.31" />
        <lane id="edge_8_4" index="4" speed="13.89" length="100.00" width="3.50" shape="71.25,-0.08 64.57,0.02 57.89,0.12 51.21,0.22 44.54,0.31" />
    </edge>
    <edge id="edge_9" from="junction_584" to="junction_584">
        <lane id="edge_9_0" index="0" speed="13.89" length="100.00" width="3.50" shape="-0.50,-30.46 0.93,-30.43 2.35,-30.32" />
        <lane id="edge_9_1" index="1" speed="13.89" length="100.00" width="3.50" shape="-0.50,-26.96 0.76,-26.93 2.01,-26.84" />
    </edge>
    <edge id="edge_10" from="junction_584" to="junction_594">
        <lane id="edge_10_0" index="0" speed="13.89" length="100.00" width="3.50" shape="17.88,-23.99 19.09,-22.96 20.24,-21.87 20.62,-21.50 20.99,-21.12 23.15,-18.71 25.03,-16.07" />
        <lane id="edge_10_1" index="1" speed="13.89" length="100.00" width="3.50" shape="15.69,-21.26 16.75,-20.36 17.77,-19.39 18.14,-19.02 18.51,-18.65 20.42,-16.52 22.07,-14.20" />
    </edge>
    <edge id="edge_11" from="junction_594" to="node_11">
        <lane id="edge_11_0" index="0" speed="13.89" length="100.00" width="3.50" shape="29.53,-2.11 29.57,-1.25 29.58,-0.38" />
        <lane id="edge_11_1" index="1" speed="13.89" length="100.00" width="3.50" shape="26.04,-1.91 26.07,-1.14 26.08,-0.38" />
    </edge>
    <edge id="edge_12" from="junction_678" to="junction_678">
        <lane id="edge_12_0" index="0" speed="13.89" length="100.00" width="3.50" shape="-30.58,-0.38 -30.56,-1.59 -30.48,-2.80" />
        <lane id="edge_12_1" index="1" speed="13.89" length="100.00" width="3.50" shape="-27.08,-0.38 -27.06,-1.45 -26.99,-2.51" />
    </edge>
    <edge id="edge_13" from="junction_678" to="junction_678">
        <lane id="edge_13_0" index="0" speed="13.89" length="100.00" width="3.50" shape="-27.10,-14.24" />
        <lane id="edge_13_1" index="1" speed="13.89" length="100.00" width="3.50" shape="-24.02,-12.59" />
    </edge>
    <edge id="edge_14" from="junction_678" to="junction_685">
        <lane id="edge_14_0" index="0" speed="13.89" length="100.00" width="3.50" shape="-27.10,-14.24 -24.80,-17.87 -21.99,-21.12 -21.78,-21.34" />
        <lane id="edge_14_1" index="1" speed="13.89" length="100.00" width="3.50" shape="-24.02,-12.59 -21.99,-15.78 -19.51,-18.65 -19.30,-18.86" />
    </edge>
    <edge id="edge_15" from="node_12" to="junction_584">
        <lane id="edge_15_0" index="0" speed="13.89" length="100.00" width="3.50" shape="-7.11,-29.71 -3.83,-30.27 -0.50,-30.46" />
        <lane id="edge_15_1" index="1" speed="13.89" length="100.00" width="3.50" shape="-6.32,-26.30 -3.43,-26.79 -0.50,-26.96" />
    </edge>
    <edge id="edge_16" from="junction_731" to="node_13">
        <lane id="edge_16_0" index="0" speed="13.89" length="100.00" width="3.50" shape="4.06,41.89 4.10,39.01 4.29,36.13 4.61,33.26 5.07,30.41 5.67,27.59 5.97,26.44 6.32,25.30" />
        <lane id="edge_16_1" index="1" speed="13.89" length="100.00" width="3.50" shape="4.06,41.89 4.10,39.01 4.29,36.13 4.61,33.26 5.07,30.41 5.67,27.59 5.97,26.44 6.32,25.30" />
    </edge>
    <edge id="edge_17" from="junction_751" to="node_14">
        <lane id="edge_17_0" index="0" speed="13.89" length="100.00" width="3.50" shape="-6.59,-40.58 -6.71,-37.70 -6.94,-34.82 -7.28,-31.95 -7.74,-29.09 -8.03,-27.48 -8.23,-26.37 -8.27,-26.14 -8.32,-25.91" />
        <lane id="edge_17_1" index="1" speed="13.89" length="100.00" width="3.50" shape="-6.59,-40.58 -6.71,-37.70 -6.94,-34.82 -7.28,-31.95 -7.74,-29.09 -8.03,-27.48 -8.23,-26.37 -8.27,-26.14 -8.32,-25.91" />
    </edge>
    <edge id="edge_18" from="junction_740" to="node_15">
        <lane id="edge_18_0" index="0" speed="13.89" length="100.00" width="3.50" shape="144.76,135.17 139.10,135.29 133.44,135.41 127.78,135.53 122.12,135.66 116.47,135.78 110.81,135.90 105.15,136.02 99.49,136.14 93.83,136.26" />
        <lane id="edge_18_1" index="1" speed="13.89" length="100.00" width="3.50" shape="144.76,135.17 139.10,135.29 133.44,135.41 127.78,135.53 122.12,135.66 116.47,135.78 110.81,135.90 105.15,136.02 99.49,136.14 93.83,136.26" />
    </edge>
    <edge id="edge_19" from="node_16" to="node_17">
        <lane id="edge_19_0" index="0" speed="13.89" length="100.00" width="3.50" shape="73.19,136.70 67.57,136.82 61.94,136.95 56.32,137.07 50.70,137.19 45.07,137.31 39.45,137.43 33.82,137.55 28.20,137.67 22.58,137.79 16.95,137.91" />
        <lane id="edge_19_1" index="1" speed="13.89" length="100.00" width="3.50" shape="73.19,136.70 67.57,136.82 61.94,136.95 56.32,137.07 50.70,137.19 45.07,137.31 39.45,137.43 33.82,137.55 28.20,137.67 22.58,137.79 16.95,137.91" />
    </edge>
    <edge id="edge_20" from="node_18" to="node_19">
        <lane id="edge_20_0" index="0" speed="13.89" length="100.00" width="3.50" shape="-11.10,138.51 -16.70,138.63 -22.30,138.75 -27.90,138.87 -33.49,138.99 -39.09,139.11 -44.69,139.23 -50.29,139.35 -55.88,139.47 -61.48,139.59 -67.08,139.71" />
        <lane id="edge_20_1" index="1" speed="13.89" length="100.00" width="3.50" shape="-11.10,138.51 -16.70,138.63 -22.30,138.75 -27.90,138.87 -33.49,138.99 -39.09,139.11 -44.69,139.23 -50.29,139.35 -55.88,139.47 -61.48,139.59 -67.08,139.71" />
    </edge>
    <edge id="edge_21" from="node_20" to="junction_793">