<?xml version='1.0' encoding='utf-8'?>
<nodes>
    <node id="junction_26" x="156.36867637716173" y="-3.5403257610801933" type="traffic_light" />
    <node id="junction_43" x="336.9169894666388" y="-3.594330171550169" type="traffic_light" />
    <node id="junction_60" x="336.7209843895495" y="-324.890686151358" type="traffic_light" />
    <node id="junction_77" x="90.81406382560517" y="-3.524893447865941" type="traffic_light" />
    <node id="junction_94" x="333.0770848225959" y="-197.32287116312705" type="traffic_light" />
    <node id="junction_111" x="333.11915467266095" y="-57.639810892154735" type="traffic_light" />
    <node id="junction_128" x="94.07492205821642" y="-197.26380546434862" type="traffic_light" />
    <node id="junction_139" x="333.0920117700131" y="-131.91944903991808" type="traffic_light" />
    <node id="junction_156" x="94.06644194658026" y="-131.02859593293988" type="traffic_light" />
    <node id="junction_167" x="156.06147704881323" y="-53.72710525868456" type="traffic_light" />
    <node id="junction_184" x="94.04920051967774" y="-57.268666166609215" type="traffic_light" />
    <node id="junction_195" x="90.48356314312919" y="-324.82301019104415" type="traffic_light" />
    <node id="node_0" x="384.5899963378906" y="-0.019999999552965164" type="priority" />
    <node id="node_1" x="348.2298241622224" y="-0.0006841404107757465" type="priority" />
    <node id="node_2" x="325.62765821020736" y="0.011322960428247972" type="priority" />
    <node id="node_3" x="168.0832132020786" y="0.043062251242637024" type="priority" />
    <node id="node_4" x="144.95581974378695" y="0.0455306209444485" type="priority" />
    <node id="node_5" x="102.69425883381626" y="0.04987428207404749" type="priority" />
    <node id="node_6" x="79.37623450934589" y="0.042274708877943615" type="priority" />
    <node id="node_7" x="11.029999736251966" y="0.019999999553999857" type="priority" />
    <node id="node_8" x="101.4197091455707" y="-131.4149048605336" type="priority" />
    <node id="node_9" x="325.6356225330699" y="-131.51508312060216" type="priority" />
    <node id="node_10" x="10.010000228881836" y="-328.53997802734375" type="priority" />
    <node id="node_11" x="79.4132055392675" y="-328.57715732676314" type="priority" />
    <node id="node_12" x="101.61915868282854" y="-328.58905305660915" type="priority" />
    <node id="node_13" x="325.7237751494667" y="-328.6099853515625" type="priority" />
    <node id="node_14" x="347.73108928616233" y="-328.6099853515625" type="priority" />
    <node id="node_15" x="384.07998657059636" y="-328.6099853515625" type="priority" />
    <node id="node_16" x="394.3500061035156" y="-318.53997802734375" type="priority" />
    <node id="node_17" x="394.3800048827421" y="-9.84999948643781" type="priority" />
    <node id="node_18" x="101.39037357766745" y="-57.49866201040719" type="priority" />
    <node id="node_19" x="144.98800158673907" y="-57.493349517980704" type="priority" />
    <node id="node_20" x="167.1725389638082" y="-57.490646270299976" type="priority" />
    <node id="node_21" x="325.62717752932133" y="-57.47133813117036" type="priority" />
    <node id="node_24" x="101.42493150662685" y="-197.14088958136335" type="priority" />
    <node id="node_25" x="325.66971324967864" y="-197.15911159114444" type="priority" />
    <node id="node_26" x="-0.029999999329447746" y="-9.960000038146973" type="priority" />
    <node id="node_31" x="0.0099999997792764" y="-317.6000060821478" type="priority" />
    <node id="node_32" x="336.89340184951857" y="-10.793785677110552" type="priority" />
    <node id="node_33" x="336.8718856001887" y="-46.41606429899288" type="priority" />
    <node id="node_34" x="336.8582253630169" y="-69.03193787046966" type="priority" />
    <node id="node_35" x="336.827091608305" y="-120.57694777862014" type="priority" />
    <node id="node_36" x="336.81314542628377" y="-143.6662313268306" type="priority" />
    <node id="node_37" x="336.7877852981334" y="-185.65243147778395" type="priority" />
    <node id="node_38" x="336.77358829093015" y="-209.1569809202106" type="priority" />
    <node id="node_39" x="336.7081769547576" y="-317.4519168287313" type="priority" />
    <node id="node_42" x="90.3716242329447" y="-10.666972117267257" type="priority" />
    <node id="node_43" x="90.37701865937606" y="-46.15365707629529" type="priority" />
    <node id="node_44" x="90.38036294124439" y="-68.15367479546022" type="priority" />
    <node id="node_45" x="90.3882192172269" y="-119.8353863341395" type="priority" />
    <node id="node_46" x="90.39156351157865" y="-141.83548617433522" type="priority" />
    <node id="node_47" x="90.39832651754261" y="-186.32523222466338" type="priority" />
    <node id="node_48" x="90.40167080752269" y="-208.32530330626744" type="priority" />
    <node id="node_49" x="90.41823674611035" y="-317.30264337930384" type="priority" />
    <node id="node_50" x="156.06691908282264" y="-10.70971281377474" type="priority" />
    <node id="node_51" x="156.02380992332454" y="-46.19715468340573" type="priority" />
</nodes>