<?xml version='1.0' encoding='UTF-8'?>
<net version="1.20" junctionCornerDetail="5" limitTurnSpeed="5.50">
    <junction id="junction_53" type="traffic_light" x="256.59" y="247.77" incLanes="" intLanes="" shape="" />
    <junction id="junction_92" type="traffic_light" x="-20.31" y="-327.06" incLanes="" intLanes="" shape="" />
    <junction id="junction_106" type="traffic_light" x="203.91" y="308.92" incLanes="" intLanes="" shape="" />
    <junction id="junction_167" type="traffic_light" x="349.44" y="170.42" incLanes="" intLanes="" shape="" />
    <junction id="junction_252" type="traffic_light" x="204.69" y="372.43" incLanes="" intLanes="" shape="" />
    <junction id="junction_281" type="traffic_light" x="257.08" y="306.97" incLanes="" intLanes="" shape="" />
    <junction id="junction_317" type="traffic_light" x="313.47" y="247.92" incLanes="" intLanes="" shape="" />
    <junction id="junction_386" type="traffic_light" x="315.11" y="227.94" incLanes="" intLanes="" shape="" />
    <junction id="junction_394" type="traffic_light" x="312.61" y="170.70" incLanes="" intLanes="" shape="" />
    <junction id="junction_431" type="traffic_light" x="313.04" y="120.21" incLanes="" intLanes="" shape="" />
    <junction id="junction_519" type="traffic_light" x="389.07" y="67.01" incLanes="" intLanes="" shape="" />
    <junction id="junction_548" type="traffic_light" x="-3.65" y="57.78" incLanes="" intLanes="" shape="" />
    <junction id="junction_569" type="traffic_light" x="256.63" y="170.76" incLanes="" intLanes="" shape="" />
    <junction id="junction_609" type="traffic_light" x="390.00" y="170.69" incLanes="" intLanes="" shape="" />
    <junction id="junction_639" type="traffic_light" x="332.26" y="171.23" incLanes="" intLanes="" shape="" />
    <junction id="junction_648" type="traffic_light" x="3.21" y="-88.88" incLanes="" intLanes="" shape="" />
    <junction id="junction_669" type="traffic_light" x="81.27" y="-19.11" incLanes="" intLanes="" shape="" />
    <junction id="junction_690" type="traffic_light" x="129.88" y="174.17" incLanes="" intLanes="" shape="" />
    <junction id="junction_703" type="traffic_light" x="8.97" y="280.04" incLanes="" intLanes="" shape="" />
    <junction id="junction_720" type="traffic_light" x="-79.19" y="-24.71" incLanes="" intLanes="" shape="" />
    <junction id="junction_741" type="traffic_light" x="202.41" y="247.32" incLanes="" intLanes="" shape="" />
    <junction id="junction_773" type="traffic_light" x="60.41" y="174.71" incLanes="" intLanes="" shape="" />
    <junction id="junction_804" type="traffic_light" x="-375.91" y="-15.37" incLanes="" intLanes="" shape="" />
    <junction id="junction_863" type="traffic_light" x="7.23" y="170.72" incLanes="" intLanes="" shape="" />
    <junction id="junction_892" type="traffic_light" x="256.29" y="123.44" incLanes="" intLanes="" shape="" />
    <junction id="junction_924" type="traffic_light" x="201.19" y="171.05" incLanes="" intLanes="" shape="" />
    <junction id="junction_1012" type="traffic_light" x="403.34" y="13.19" incLanes="" intLanes="" shape="" />
    <junction id="node_0" type="priority" x="375.63" y="66.94" incLanes="" intLanes="" shape="" />
    <junction id="node_1" type="priority" x="-498.48" y="-177.62" incLanes="" intLanes="" shape="" />
    <junction id="node_2" type="priority" x="-499.50" y="-240.92" incLanes="" intLanes="" shape="" />
    <junction id="node_3" type="priority" x="20.05" y="172.29" incLanes="" intLanes="" shape="" />
    <junction id="node_4" type="priority" x="375.40" y="170.27" incLanes="" intLanes="" shape="" />
    <junction id="node_5" type="priority" x="204.69" y="359.23" incLanes="" intLanes="" shape="" />
    <junction id="node_6" type="priority" x="203.30" y="298.82" incLanes="" intLanes="" shape="" />
    <junction id="node_7" type="priority" x="334.04" y="119.35" incLanes="" intLanes="" shape="" />
    <junction id="node_8" type="priority" x="5.32" y="-310.79" incLanes="" intLanes="" shape="" />
    <junction id="node_9" type="priority" x="398.91" y="-25.04" incLanes="" intLanes="" shape="" />
    <junction id="node_10" type="priority" x="-23.66" y="244.77" incLanes="" intLanes="" shape="" />
    <junction id="node_11" type="priority" x="-379.54" y="-0.38" incLanes="" intLanes="" shape="" />
    <junction id="node_12" type="priority" x="349.75" y="142.83" incLanes="" intLanes="" shape="" />
    <junction id="node_13" type="priority" x="256.65" y="160.67" incLanes="" intLanes="" shape="" />
    <junction id="node_14" type="priority" x="21.30" y="-125.87" incLanes="" intLanes="" shape="" />
    <junction id="node_15" type="priority" x="110.88" y="-43.46" incLanes="" intLanes="" shape="" />
    <junction id="node_16" type="priority" x="-21.64" y="82.65" incLanes="" intLanes="" shape="" />
    <junction id="node_17" type="priority" x="-102.68" y="-0.56" incLanes="" intLanes="" shape="" />
    <junction id="node_18" type="priority" x="110.26" y="-1.44" incLanes="" intLanes="" shape="" />
    <junction id="node_19" type="priority" x="20.36" y="83.37" incLanes="" intLanes="" shape="" />
    <junction id="node_20" type="priority" x="248.61" y="379.98" incLanes="" intLanes="" shape="" />
    <junction id="node_21" type="priority" x="397.83" y="177.53" incLanes="" intLanes="" shape="" />
    <junction id="node_22" type="priority" x="397.67" y="162.65" incLanes="" intLanes="" shape="" />
    <junction id="node_23" type="priority" x="396.76" y="73.46" incLanes="" intLanes="" shape="" />
    <junction id="node_24" type="priority" x="396.66" y="59.55" incLanes="" intLanes="" shape="" />
    <junction id="node_25" type="priority" x="397.34" y="36.82" incLanes="" intLanes="" shape="" />
    <junction id="node_26" type="priority" x="381.19" y="-9.97" incLanes="" intLanes="" shape="" />
    <junction id="node_27" type="priority" x="111.24" y="-22.46" incLanes="" intLanes="" shape="" />
    <junction id="node_28" type="priority" x="68.30" y="-22.11" incLanes="" intLanes="" shape="" />
    <junction id="node_29" type="priority" x="-69.63" y="-21.60" incLanes="" intLanes="" shape="" />
    <junction id="node_30" type="priority" x="-105.53" y="-21.56" incLanes="" intLanes="" shape="" />
    <junction id="node_31" type="priority" x="-365.14" y="-21.32" incLanes="" intLanes="" shape="" />
    <junction id="node_32" type="priority" x="-390.28" y="-21.48" incLanes="" intLanes="" shape="" />
    <junction id="node_33" type="priority" x="160.45" y="380.39" incLanes="" intLanes="" shape="" />
    <junction id="node_34" type="priority" x="197.72" y="380.08" incLanes="" intLanes="" shape="" />
    <junction id="node_35" type="priority" x="212.67" y="379.97" incLanes="" intLanes="" shape="" />
    <junction id="node_36" type="priority" x="-105.55" y="-42.56" incLanes="" intLanes="" shape="" />
    <junction id="node_37" type="priority" x="-20.70" y="-126.38" incLanes="" intLanes="" shape="" />
    <junction id="node_38" type="priority" x="-41.50" y="-343.53" incLanes="" intLanes="" shape="" />
    <junction id="node_39" type="priority" x="-15.85" y="-300.54" incLanes="" intLanes="" shape="" />
    <junction id="node_40" type="priority" x="0.30" y="-126.27" incLanes="" intLanes="" shape="" />
    <junction id="node_41" type="priority" x="0.01" y="-68.10" incLanes="" intLanes="" shape="" />
    <junction id="node_42" type="priority" x="-0.64" y="83.29" incLanes="" intLanes="" shape="" />
    <junction id="node_43" type="priority" x="-1.02" y="179.52" incLanes="" intLanes="" shape="" />
    <junction id="node_44" type="priority" x="-2.43" y="198.85" incLanes="" intLanes="" shape="" />
    <junction id="node_45" type="priority" x="15.48" y="291.30" incLanes="" intLanes="" shape="" />
    <junction id="node_46" type="priority" x="-129.49" y="202.21" incLanes="" intLanes="" shape="" />
    <edge id="edge_0" from="junction_106" to="junction_281">
        <lane id="edge_0_0" index="0" speed="13.89" length="100.00" width="3.50" shape="211.31,307.88 217.90,307.81 224.48,307.74 231.07,307.68 237.65,307.61 244.24,307.54 250.82,307.47" />
        <lane id="edge_0_1" index="1" speed="13.89" length="100.00" width="3.50" shape="211.31,307.88 217.90,307.81 224.48,307.74 231.07,307.68 237.65,307.61 244.24,307.54 250.82,307.47" />
    </edge>
    <edge id="edge_1" from="junction_281" to="junction_317">
        <lane id="edge_1_0" index="0" speed="13.89" length="100.00" width="3.50" shape="263.31,307.34 273.24,307.24 283.18,307.14 285.20,307.04 287.21,306.77 289.18,306.34 291.12,305.75 293.00,305.01 294.81,304.12 296.55,303.08 298.19,301.90 299.74,300.60 301.17,299.17 302.48,297.63 303.67,295.99 304.71,294.26 305.69,292.40 306.61,290.50 307.45,288.56 308.22,286.60 308.92,284.61 309.55,282.60 310.10,280.56 310.58,278.51 310.98,276.44 311.31,274.36 311.56,272.26 311.73,270.16 311.83,268.05 311.85,265.95 311.77,256.29" />
        <lane id="edge_1_1" index="1" speed="13.89" length="100.00" width="3.50" shape="263.31,307.34 273.24,307.24 283.18,307.14 285.20,307.04 287.21,306.77 289.18,306.34 291.12,305.75 293.00,305.01 294.81,304.12 296.55,303.08 298.19,301.90 299.74,300.60 301.17,299.17 302.48,297.63 303.67,295.99 304.71,294.26 305.69,292.40 306.61,290.50 307.45,288.56 308.22,286.60 308.92,284.61 309.55,282.60 310.10,280.56 310.58,278.51 310.98,276.44 311.31,274.36 311.56,272.26 311.73,270.16 311.83,268.05 311.85,265.95 311.77,256.29" />
    </edge>
    <edge id="edge_2" from="junction_317" to="junction_386">
        <lane id="edge_2_0" index="0" speed="13.89" length="100.00" width="3.50" shape="311.61,238.71 311.56,233.42" />
        <lane id="edge_2_1" index="1" speed="13.89" length="100.00" width="3.50" shape="311.61,238.71 311.56,233.42" />
    </edge>
    <edge id="edge_3" from="junction_386" to="junction_394">
        <lane id="edge_3_0" index="0" speed="13.89" length="100.00" width="3.50" shape="311.46,221.95 311.41,216.00 311.35,210.06 311.30,204.11 311.25,198.17 311.19,192.22 311.14,186.27 311.09,180.33" />
        <lane id="edge_3_1" index="1" speed="13.89" length="100.00" width="3.50" shape="311.46,221.95 311.41,216.00 311.35,210.06 311.30,204.11 311.25,198.17 311.19,192.22 311.14,186.27 311.09,180.33" />
    </edge>
    <edge id="edge_4" from="junction_394" to="junction_431">
        <lane id="edge_4_0" index="0" speed="13.89" length="100.00" width="3.50" shape="310.92,161.23 310.86,154.56 310.80,147.89 310.74,141.22 310.68,134.55 310.62,127.87" />
        <lane id="edge_4_1" index="1" speed="13.89" length="100.00" width="3.50" shape="310.92,161.23 310.86,154.56 310.80,147.89 310.74,141.22 310.68,134.55 310.62,127.87" />
    </edge>
    <edge id="edge_5" from="junction_431" to="node_0">
        <lane id="edge_5_0" index="0" speed="13.89" length="100.00" width="3.50" shape="310.49,112.97 310.42,105.87 310.36,98.77 310.30,91.67 310.23,84.57 310.35,82.22 310.73,79.90 311.38,77.65 312.29,75.48 313.44,73.43 314.82,71.53 316.41,69.80 318.18,68.27 320.13,66.95 322.21,65.86 324.40,65.03 326.68,64.45 329.01,64.13 331.36,64.09 344.00,64.60 346.72,64.70 349.45,64.79 352.17,64.86 354.89,64.91 357.62,64.96 366.63,65.07 375.65,65.19" />
        <lane id="edge_5_1" index="1" speed="13.89" length="100.00" width="3.50" shape="310.49,112.97 310.42,105.87 310.36,98.77 310.30,91.67 310.23,84.57 310.35,82.22 310.73,79.90 311.38,77.65 312.29,75.48 313.44,73.43 314.82,71.53 316.41,69.80 318.18,68.27 320.13,66.95 322.21,65.86 324.40,65.03 326.68,64.45 329.01,64.13 331.36,64.09 344.00,64.60 346.72,64.70 349.45,64.79 352.17,64.86 354.89,64.91 357.62,64.96 366.63,65.07 375.65,65.19" />
    </edge>
    <edge id="edge_6" from="node_1" to="node_2">
        <lane id="edge_6_0" index="0" speed="13.89" length="100.00" width="3.50" shape="-510.73,-177.54 -510.79,-187.36 -510.81,-189.71 -510.84,-192.05 -510.89,-194.39 -510.94,-196.74 -511.00,-199.08 -511.30,-208.90 -511.53,-216.57 -511.60,-218.96 -511.66,-221.34 -511.70,-223.73 -511.73,-226.11 -511.76,-228.50 -511.77,-230.88 -511.77,-233.27 -511.75,-240.95" />
        <lane id="edge_6_1" index="1" speed="13.89" length="100.00" width="3.50" shape="-507.23,-177.57 -507.29,-187.38 -507.31,-189.74 -507.34,-192.11 -507.39,-194.47 -507.44,-196.83 -507.51,-199.19 -507.80,-209.00 -508.04,-216.68 -508.10,-219.05 -508.16,-221.41 -508.20,-223.78 -508.23,-226.15 -508.26,-228.52 -508.27,-230.89 -508.27,-233.26 -508.25,-240.94" />
        <lane id="edge_6_2" index="2" speed="13.89" length="100.00" width="3.50" shape="-503.73,-177.59 -503.79,-187.41 -503.81,-189.78 -503.84,-192.16 -503.89,-194.54 -503.94,-196.92 -504.01,-199.29 -504.31,-209.11 -504.54,-216.78 -504.60,-219.14 -504.66,-221.49 -504.70,-223.84 -504.74,-226.19 -504.76,-228.55 -504.77,-230.90 -504.77,-233.25 -504.75,-240.93" />
        <lane id="edge_6_3" index="3" speed="13.89" length="100.00" width="3.50" shape="-500.23,-177.61 -500.29,-187.43 -500.31,-189.82 -500.34,-192.22 -500.39,-194.61 -500.44,-197.01 -500.51,-199.40 -500.81,-209.22 -501.04,-216.89 -501.10,-219.22 -501.16,-221.56 -501.20,-223.90 -501.24,-226.23 -501.26,-228.57 -501.27,-230.91 -501.27,-233.25 -501.25,-240.92" />
        <lane id="edge_6_4" index="4" speed="13.89" length="100.00" width="3.50" shape="-500.23,-177.61 -500.29,-187.43 -500.31,-189.82 -500.34,-192.22 -500.39,-194.61 -500.44,-197.01 -500.51,-199.40 -500.81,-209.22 -501.04,-216.89 -501.10,-219.22 -501.16,-221.56 -501.20,-223.90 -501.24,-226.23 -501.26,-228.57 -501.27,-230.91 -501.27,-233.25 -501.25,-240.92" />
        <lane id="edge_6_5" index="5" speed="13.89" length="100.00" width="3.50" shape="-500.23,-177.61 -500.29,-187.43 -500.31,-189.82 -500.34,-192.22 -500.39,-194.61 -500.44,-197.01 -500.51,-199.40 -500.81,-209.22 -501.04,-216.89 -501.10,-219.22 -501.16,-221.56 -501.20,-223.90 -501.24,-226.23 -501.26,-228.57 -501.27,-230.91 -501.27,-233.25 -501.25,-240.92" />
        <lane id="edge_6_6" index="6" speed="13.89" length="100.00" width="3.50" shape="-500.23,-177.61 -500.29,-187.43 -500.31,-189.82 -500.34,-192.22 -500.39,-194.61 -500.44,-197.01 -500.51,-199.40 -500.81,-209.22 -501.04,-216.89 -501.10,-219.22 -501.16,-221.56 -501.20,-223.90 -501.24,-226.23 -501.26,-228.57 -501.27,-230.91 -501.27,-233.25 -501.25,-240.92" />
        <lane id="edge_6_7" index="7" speed="13.89" length="100.00" width="3.50" shape="-500.23,-177.61 -500.29,-187.43 -500.31,-189.82 -500.34,-192.22 -500.39,-194.61 -500.44,-197.01 -500.51,-199.40 -500.81,-209.22 -501.04,-216.89 -501.10,-219.22 -501.16,-221.56 -501.20,-223.90 -501.24,-226.23 -501.26,-228.57 -501.27,-230.91 -501.27,-233.25 -501.25,-240.92" />
    </edge>
    <edge id="edge_7" from="node_3" to="junction_773">
        <lane id="edge_7_0" index="0" speed="13.89" length="100.00" width="3.50" shape="20.04,170.54 26.85,170.50 33.66,170.46 40.47,170.43 47.27,170.39 54.08,170.35" />
        <lane id="edge_7_1" index="1" speed="13.89" length="100.00" width="3.50" shape="20.04,170.54 26.85,170.50 33.66,170.46 40.47,170.43 47.27,170.39 54.08,170.35" />
    </edge>
    <edge id="edge_8" from="junction_773" to="junction_690">
        <lane id="edge_8_0" index="0" speed="13.89" length="100.00" width="3.50" shape="66.75,170.28 72.58,170.24 78.40,170.21 84.23,170.18 90.06,170.14 95.88,170.11 101.71,170.08 107.54,170.04 113.36,170.01 119.19,169.98 125.02,169.94" />
        <lane id="edge_8_1" index="1" speed="13.89" length="100.00" width="3.50" shape="66.75,170.28 72.58,170.24 78.40,170.21 84.23,170.18 90.06,170.14 95.88,170.11 101.71,170.08 107.54,170.04 113.36,170.01 119.19,169.98 125.02,169.94" />
    </edge>
    <edge id="edge_9" from="junction_690" to="junction_924">
        <lane id="edge_9_0" index="0" speed="13.89" length="100.00" width="3.50" shape="133.19,169.90 139.12,169.86 145.05,169.83 150.98,169.80 156.91,169.76 162.84,169.73 168.77,169.70 174.70,169.66 180.63,169.63 186.56,169.59 192.49,169.56" />
        <lane id="edge_9_1" index="1" speed="13.89" length="100.00" width="3.50" shape="133.19,169.90 139.12,169.86 145.05,169.83 150.98,169.80 156.91,169.76 162.84,169.73 168.77,169.70 174.70,169.66 180.63,169.63 186.56,169.59 192.49,169.56" />
    </edge>
    <edge id="edge_10" from="junction_924" to="junction_569">
        <lane id="edge_10_0" index="0" speed="13.89" length="100.00" width="3.50" shape="210.58,169.46 216.62,169.42 222.67,169.39 228.71,169.35 234.76,169.32 240.81,169.29 246.85,169.25" />
        <lane id="edge_10_1" index="1" speed="13.89" length="100.00" width="3.50" shape="210.58,169.46 216.62,169.42 222.67,169.39 228.71,169.35 234.76,169.32 240.81,169.29 246.85,169.25" />
    </edge>
    <edge id="edge_11" from="junction_569" to="junction_394">
        <lane id="edge_11_0" index="0" speed="13.89" length="100.00" width="3.50" shape="266.28,169.14 272.44,169.11 278.60,169.07 284.75,169.04 290.91,169.00 297.07,168.97 303.23,168.93" />
        <lane id="edge_11_1" index="1" speed="13.89" length="100.00" width="3.50" shape="266.28,169.14 272.44,169.11 278.60,169.07 284.75,169.04 290.91,169.00 297.07,168.97 303.23,168.93" />
    </edge>
    <edge id="edge_12" from="junction_394" to="junction_639">
        <lane id="edge_12_0" index="0" speed="13.89" length="100.00" width="3.50" shape="321.71,168.83 329.14,168.78" />
        <lane id="edge_12_1" index="1" speed="13.89" length="100.00" width="3.50" shape="321.71,168.83 329.14,168.78" />
    </edge>
    <edge id="edge_13" from="junction_639" to="junction_167">
        <lane id="edge_13_0" index="0" speed="13.89" length="100.00" width="3.50" shape="335.21,168.75 341.29,168.71" />
        <lane id="edge_13_1" index="1" speed="13.89" length="100.00" width="3.50" shape="335.21,168.75 341.29,168.71" />
    </edge>
    <edge id="edge_14" from="junction_167" to="node_4">
        <lane id="edge_14_0" index="0" speed="13.89" length="100.00" width="3.50" shape="356.21,168.63 365.80,168.57 375.39,168.52" />
        <lane id="edge_14_1" index="1" speed="13.89" length="100.00" width="3.50" shape="356.21,168.63 365.80,168.57 375.39,168.52" />
    </edge>
    <edge id="edge_15" from="node_5" to="junction_106">
        <lane id="edge_15_0" index="0" speed="13.89" length="100.00" width="3.50" shape="202.94,359.27 202.80,353.35 202.67,347.43 202.53,341.51 202.40,335.58 202.26,329.66 202.13,323.74 201.99,317.82" />
        <lane id="edge_15_1" index="1" speed="13.89" length="100.00" width="3.50" shape="202.94,359.27 202.80,353.35 202.67,347.43 202.53,341.51 202.40,335.58 202.26,329.66 202.13,323.74 201.99,317.82" />
    </edge>
    <edge id="edge_16" from="node_6" to="junction_741">
        <lane id="edge_16_0" index="0" speed="13.89" length="100.00" width="3.50" shape="201.55,298.86 201.41,292.73 201.27,286.61 201.13,280.48 200.99,274.35 200.85,268.22 200.71,262.09 200.57,255.96" />
        <lane id="edge_16_1" index="1" speed="13.89" length="100.00" width="3.50" shape="201.55,298.86 201.41,292.73 201.27,286.61 201.13,280.48 200.99,274.35 200.85,268.22 200.71,262.09 200.57,255.96" />
    </edge>
    <edge id="edge_17" from="junction_741" to="junction_924">
        <lane id="edge_17_0" index="0" speed="13.89" length="100.00" width="3.50" shape="200.18,238.79 200.04,232.82 199.90,226.86 199.77,220.89 199.63,214.92 199.49,208.96 199.35,202.99 199.22,197.02 199.08,191.06 198.94,185.09 198.81,179.12" />
        <lane id="edge_17_1" index="1" speed="13.89" length="100.00" width="3.50" shape="200.18,238.79 200.04,232.82 199.90,226.86 199.77,220.89 199.63,214.92 199.49,208.96 199.35,202.99 199.22,197.02 199.08,191.06 198.94,185.09 198.81,179.12" />
    </edge>
    <edge id="edge_18" from="junction_924" to="junction_892">
        <lane id="edge_18_0" index="0" speed="13.89" length="100.00" width="3.50" shape="198.47,164.32 198.42,162.45 198.42,160.20 198.53,157.96 198.73,155.73 199.04,153.51 199.46,151.30 199.97,149.12 200.58,146.96 201.29,144.83 202.10,142.74 203.00,140.68 204.00,138.67 205.09,136.71 206.27,134.80 207.53,132.95 208.98,131.08 210.55,129.32 212.25,127.68 214.06,126.16 215.97,124.78 217.98,123.54 220.07,122.44 222.24,121.50 224.46,120.71 226.74,120.09 229.06,119.63 231.40,119.34 233.76,119.22 241.61,119.09 249.47,118.96" />
        <lane id="edge_18_1" index="1" speed="13.89" length="100.00" width="3.50" shape="198.47,164.32 198.42,162.45 198.42,160.20 198.53,157.96 198.73,155.73 199.04,153.51 199.46,151.30 199.97,149.12 200.58,146.96 201.29,144.83 202.10,142.74 203.00,140.68 204.00,138.67 205.09,136.71 206.27,134.80 207.53,132.95 208.98,131.08 210.55,129.32 212.25,127.68 214.06,126.16 215.97,124.78 217.98,123.54 220.07,122.44 222.24,121.50 224.46,120.71 226.74,120.09 229.06,119.63 231.40,119.34 233.76,119.22 241.61,119.09 249.47,118.96" />
    </edge>
    <edge id="edge_19" from="junction_892" to="junction_431">
        <lane id="edge_19_0" index="0" speed="13.89" length="100.00" width="3.50" shape="262.78,118.75 268.68,118.65 274.57,118.56 280.47,118.46 286.37,118.37 292.26,118.27 298.16,118.18 304.05,118.08" />
        <lane id="edge_19_1" index="1" speed="13.89" length="100.00" width="3.50" shape="262.78,118.75 268.68,118.65 274.57,118.56 280.47,118.46 286.37,118.37 292.26,118.27 298.16,118.18 304.05,118.08" />
    </edge>
    <edge id="edge_20" from="junction_431" to="node_7">
        <lane id="edge_20_0" index="0" speed="13.89" length="100.00" width="3.50" shape="321.53,117.80 334.01,117.60" />
        <lane id="edge_20_1" index="1" speed="13.89" length="100.00" width="3.50" shape="321.53,117.80 334.01,117.60" />
    </edge>
    <edge id="edge_21" from="junction_386" to="junction_639">
        <lane id="edge_21_0" index="0" speed="13.89" length="100.00" width="3.50" shape="319.25,222.84 321.05,218.96 322.15,216.31 323.03,213.58 323.69,210.79 324.14,207.92 324.41,205.03 324.49,202.13 324.46,195.92 324.54,193.53 324.78,191.16 325.19,188.82 325.77,186.50 326.50,184.23 327.40,182.03 328.45,179.89 329.65,177.83 330.99,175.86" />
    </edge>
    <edge id="edge_22" from="node_8" to="node_9">
        <lane id="edge_22_0" index="0" speed="13.89" length="100.00" width="3.50" shape="10.95,-316.38 15.26,-312.04 19.57,-307.71 23.88,-303.37 28.18,-299.03 32.49,-294.69 36.80,-290.35 41.11,-286.01 42.52,-284.61 43.94,-283.21 45.37,-281.82 46.80,-280.44 48.25,-279.08 49.71,-277.72 51.17,-276.38 52.65,-275.04 54.14,-273.72 55.63,-272.40 57.13,-271.10 58.65,-269.81 60.17,-268.53 61.70,-267.25 63.24,-265.99 64.79,-264.75 66.35,-263.51 67.92,-262.28 69.50,-261.07 71.08,-259.86 72.68,-258.67 74.28,-257.49 75.89,-256.32 77.51,-255.16 79.13,-254.01 80.77,-252.88 82.41,-251.75 84.06,-250.64 85.72,-249.54 87.39,-248.45 89.06,-247.38 90.74,-246.31 92.43,-245.26 94.13,-244.22 95.84,-243.19 97.55,-242.18 99.27,-241.17 100.99,-240.18 102.72,-239.20 104.46,-238.24 106.21,-237.28 107.97,-236.34 109.73,-235.41 111.49,-234.50 113.27,-233.59 115.05,-232.70 116.83,-231.82 118.62,-230.96 120.42,-230.10 122.23,-229.26 124.04,-228.44 125.85,-227.62 127.68,-226.82 129.50,-226.03 131.34,-225.26 133.18,-224.50 135.02,-223.75 136.87,-223.01 138.72,-222.29 140.58,-221.58 142.45,-220.88 144.32,-220.20 146.19,-219.53 148.07,-218.88 149.96,-218.23 151.84,-217.60 153.74,-216.99 159.18,-215.24 164.63,-213.49 170.07,-211.74 175.52,-209.99 180.97,-208.24 186.41,-206.49 191.86,-204.74 197.30,-202.99 199.33,-202.33 201.36,-201.67 203.38,-201.00 205.40,-200.31 207.42,-199.62 209.43,-198.93 211.44,-198.22 213.45,-197.50 215.45,-196.78 217.46,-196.05 219.46,-195.30 221.45,-194.56 223.44,-193.80 225.43,-193.03 227.42,-192.26 229.40,-191.48 231.38,-190.68 233.36,-189.88 235.33,-189.08 237.30,-188.26 239.27,-187.44 241.23,-186.60 243.19,-185.76 248.65,-183.41 254.12,-181.05 259.58,-178.69 265.05,-176.33 270.51,-173.97 275.98,-171.61 284.61,-167.89 293.25,-164.16 295.22,-163.30 297.19,-162.42 299.15,-161.53 301.10,-160.62 303.04,-159.69 304.98,-158.74 306.90,-157.79 308.82,-156.81 310.73,-155.82 312.64,-154.81 314.53,-153.79 316.42,-152.75 318.29,-151.69 320.16,-150.62 322.02,-149.53 323.87,-148.43 325.71,-147.31 327.54,-146.18 329.36,-145.03 331.17,-143.86 332.97,-142.68 334.76,-141.49 336.54,-140.28 338.32,-139.06 340.08,-137.82 341.83,-136.56 343.57,-135.29 345.30,-134.01 347.01,-132.71 348.72,-131.40 350.42,-130.07 352.10,-128.73 353.77,-127.38 355.44,-126.01 357.09,-124.63 358.73,-123.23 360.35,-121.82 361.97,-120.40 363.57,-118.96 365.20,-117.46 366.81,-115.93 368.39,-114.37 369.94,-112.78 371.46,-111.16 372.96,-109.52 374.42,-107.86 375.86,-106.17 377.26,-104.45 378.64,-102.71 379.99,-100.94 381.30,-99.15 382.58,-97.34 383.83,-95.51 385.05,-93.65 386.23,-91.78 387.38,-89.88 388.50,-87.96 389.58,-86.02 390.63,-84.07 391.65,-82.10 392.63,-80.10 393.57,-78.10 394.48,-76.07 395.36,-74.03 396.19,-71.98 396.99,-69.91 397.76,-67.82 398.49,-65.73 399.18,-63.62 399.83,-61.50 400.45,-59.37 401.03,-57.22 401.57,-55.07 402.07,-52.91 402.54,-50.74 402.96,-48.56 403.35,-46.38 404.48,-39.70 405.60,-33.03 406.73,-26.36" />
        <lane id="edge_22_1" index="1" speed="13.89" length="100.00" width="3.50" shape="8.46,-313.92 12.77,-309.58 17.08,-305.24 21.39,-300.90 25.70,-296.56 30.01,-292.22 34.32,-287.88 38.63,-283.55 40.05,-282.12 41.49,-280.71 42.94,-279.30 44.39,-277.91 45.86,-276.52 47.33,-275.15 48.82,-273.79 50.31,-272.44 51.82,-271.10 53.33,-269.77 54.85,-268.45 56.39,-267.14 57.93,-265.84 59.48,-264.55 61.04,-263.28 62.61,-262.01 64.19,-260.76 65.77,-259.52 67.37,-258.29 68.97,-257.07 70.59,-255.86 72.21,-254.66 73.84,-253.48 75.48,-252.31 77.13,-251.14 78.78,-250.00 80.45,-248.86 82.12,-247.73 83.80,-246.62 85.48,-245.52 87.18,-244.43 88.88,-243.35 90.59,-242.28 92.31,-241.23 94.04,-240.19 95.77,-239.16 97.51,-238.15 99.26,-237.14 101.01,-236.15 102.78,-235.17 104.55,-234.21 106.32,-233.25 108.10,-232.31 109.89,-231.38 111.69,-230.47 113.49,-229.57 115.30,-228.68 117.11,-227.80 118.93,-226.94 120.76,-226.09 122.59,-225.25 124.43,-224.42 126.28,-223.61 128.13,-222.81 129.99,-222.03 131.85,-221.26 133.71,-220.50 135.59,-219.75 137.46,-219.02 139.35,-218.30 141.24,-217.60 143.13,-216.91 145.03,-216.23 146.93,-215.57 148.84,-214.92 150.75,-214.28 152.67,-213.66 158.11,-211.91 163.56,-210.16 169.00,-208.41 174.45,-206.66 179.89,-204.91 185.34,-203.16 190.79,-201.41 196.23,-199.66 198.25,-199.01 200.26,-198.35 202.27,-197.68 204.27,-197.00 206.28,-196.31 208.28,-195.62 210.27,-194.92 212.27,-194.21 214.26,-193.49 216.25,-192.76 218.23,-192.03 220.21,-191.28 222.19,-190.53 224.17,-189.77 226.14,-189.00 228.11,-188.22 230.08,-187.44 232.04,-186.64 234.00,-185.84 235.95,-185.03 237.91,-184.21 239.86,-183.39 241.80,-182.55 247.27,-180.19 252.73,-177.83 258.20,-175.48 263.66,-173.12 269.13,-170.76 274.59,-168.40 283.23,-164.67 291.86,-160.95 293.81,-160.10 295.75,-159.23 297.68,-158.35 299.60,-157.45 301.52,-156.54 303.43,-155.61 305.33,-154.66 307.22,-153.70 309.11,-152.72 310.99,-151.72 312.85,-150.71 314.71,-149.69 316.56,-148.65 318.41,-147.59 320.24,-146.52 322.06,-145.43 323.88,-144.33 325.68,-143.21 327.48,-142.08 329.27,-140.93 331.04,-139.76 332.81,-138.59 334.57,-137.39 336.31,-136.18 338.05,-134.96 339.78,-133.73 341.49,-132.47 343.20,-131.21 344.89,-129.93 346.58,-128.63 348.25,-127.33 349.91,-126.00 351.56,-124.67 353.20,-123.32 354.83,-121.95 356.44,-120.58 358.05,-119.19 359.64,-117.78 361.22,-116.36 362.81,-114.90 364.37,-113.41 365.91,-111.90 367.42,-110.35 368.90,-108.79 370.35,-107.19 371.77,-105.57 373.17,-103.92 374.54,-102.26 375.87,-100.56 377.18,-98.85 378.46,-97.11 379.71,-95.35 380.92,-93.56 382.10,-91.76 383.25,-89.93 384.37,-88.09 385.46,-86.22 386.51,-84.34 387.53,-82.44 388.52,-80.52 389.47,-78.59 390.39,-76.63 391.28,-74.67 392.13,-72.68 392.94,-70.68 393.72,-68.67 394.46,-66.65 395.17,-64.61 395.84,-62.56 396.48,-60.50 397.08,-58.42 397.64,-56.34 398.17,-54.25 398.66,-52.15 399.11,-50.04 399.52,-47.92 399.90,-45.80 401.03,-39.12 402.15,-32.45 403.28,-25.77" />
    </edge>
    <edge id="edge_23" from="node_10" to="node_11">