<?xml version='1.0' encoding='UTF-8'?>
<net version="1.20" junctionCornerDetail="5" limitTurnSpeed="5.50">
    <junction id="junction_79" type="traffic_light" x="2.72" y="-144.18" incLanes="" intLanes="" shape="" />
    <junction id="junction_196" type="traffic_light" x="657.01" y="-36.76" incLanes="" intLanes="" shape="" />
    <junction id="junction_208" type="traffic_light" x="540.52" y="-46.32" incLanes="" intLanes="" shape="" />
    <junction id="junction_218" type="traffic_light" x="659.90" y="-141.32" incLanes="" intLanes="" shape="" />
    <junction id="junction_230" type="traffic_light" x="-211.01" y="-142.27" incLanes="" intLanes="" shape="" />
    <junction id="junction_241" type="traffic_light" x="-137.23" y="8.66" incLanes="" intLanes="" shape="" />
    <junction id="junction_262" type="traffic_light" x="-102.06" y="-235.34" incLanes="" intLanes="" shape="" />
    <junction id="junction_273" type="traffic_light" x="80.45" y="-136.89" incLanes="" intLanes="" shape="" />
    <junction id="junction_281" type="traffic_light" x="0.34" y="20.98" incLanes="" intLanes="" shape="" />
    <junction id="junction_360" type="traffic_light" x="-4.62" y="99.49" incLanes="" intLanes="" shape="" />
    <junction id="junction_371" type="traffic_light" x="245.41" y="-41.19" incLanes="" intLanes="" shape="" />
    <junction id="junction_382" type="traffic_light" x="-0.11" y="-347.14" incLanes="" intLanes="" shape="" />
    <junction id="junction_393" type="traffic_light" x="-141.82" y="-33.24" incLanes="" intLanes="" shape="" />
    <junction id="junction_408" type="traffic_light" x="-1.84" y="-50.64" incLanes="" intLanes="" shape="" />
    <junction id="junction_481" type="traffic_light" x="132.50" y="-37.77" incLanes="" intLanes="" shape="" />
    <junction id="junction_497" type="traffic_light" x="-224.22" y="-236.41" incLanes="" intLanes="" shape="" />
    <junction id="junction_508" type="traffic_light" x="1.87" y="-246.52" incLanes="" intLanes="" shape="" />
    <junction id="junction_636" type="traffic_light" x="466.55" y="-138.48" incLanes="" intLanes="" shape="" />
    <junction id="junction_647" type="traffic_light" x="492.14" y="-38.87" incLanes="" intLanes="" shape="" />
    <junction id="junction_657" type="traffic_light" x="-120.96" y="-136.82" incLanes="" intLanes="" shape="" />
    <junction id="junction_669" type="traffic_light" x="230.75" y="-139.67" incLanes="" intLanes="" shape="" />
    <junction id="junction_680" type="traffic_light" x="132.28" y="13.26" incLanes="" intLanes="" shape="" />
    <junction id="junction_693" type="traffic_light" x="90.59" y="-238.31" incLanes="" intLanes="" shape="" />
    <junction id="junction_704" type="traffic_light" x="506.91" y="11.30" incLanes="" intLanes="" shape="" />
    <junction id="node_0" type="priority" x="-1.50" y="-162.43" incLanes="" intLanes="" shape="" />
    <junction id="node_1" type="priority" x="-2.92" y="-125.38" incLanes="" intLanes="" shape="" />
    <junction id="node_2" type="priority" x="-3.27" y="-110.23" incLanes="" intLanes="" shape="" />
    <junction id="node_3" type="priority" x="194.17" y="-75.28" incLanes="" intLanes="" shape="" />
    <junction id="node_4" type="priority" x="184.22" y="-83.08" incLanes="" intLanes="" shape="" />
    <junction id="node_5" type="priority" x="531.79" y="-54.47" incLanes="" intLanes="" shape="" />
    <junction id="node_6" type="priority" x="508.87" y="-88.49" incLanes="" intLanes="" shape="" />
    <junction id="node_7" type="priority" x="600.91" y="11.71" incLanes="" intLanes="" shape="" />
    <junction id="node_8" type="priority" x="644.63" y="6.21" incLanes="" intLanes="" shape="" />
    <junction id="node_9" type="priority" x="660.21" y="-55.19" incLanes="" intLanes="" shape="" />
    <junction id="node_10" type="priority" x="659.70" y="-154.90" incLanes="" intLanes="" shape="" />
    <junction id="node_11" type="priority" x="659.44" y="-178.55" incLanes="" intLanes="" shape="" />
    <junction id="node_12" type="priority" x="-249.65" y="-190.73" incLanes="" intLanes="" shape="" />
    <junction id="node_13" type="priority" x="92.86" y="-130.18" incLanes="" intLanes="" shape="" />
    <junction id="node_14" type="priority" x="-83.93" y="-227.03" incLanes="" intLanes="" shape="" />
    <junction id="node_15" type="priority" x="-71.61" y="-195.06" incLanes="" intLanes="" shape="" />
    <junction id="node_16" type="priority" x="11.11" y="120.13" incLanes="" intLanes="" shape="" />
    <junction id="node_17" type="priority" x="-11.77" y="120.51" incLanes="" intLanes="" shape="" />
    <junction id="node_18" type="priority" x="-340.32" y="-242.13" incLanes="" intLanes="" shape="" />
    <junction id="node_19" type="priority" x="-229.61" y="20.40" incLanes="" intLanes="" shape="" />
    <junction id="node_20" type="priority" x="-199.78" y="-40.23" incLanes="" intLanes="" shape="" />
    <junction id="node_21" type="priority" x="-161.11" y="-40.21" incLanes="" intLanes="" shape="" />
    <junction id="node_22" type="priority" x="-129.24" y="-40.20" incLanes="" intLanes="" shape="" />
    <junction id="node_23" type="priority" x="-23.93" y="-40.16" incLanes="" intLanes="" shape="" />
    <junction id="node_24" type="priority" x="16.82" y="-40.13" incLanes="" intLanes="" shape="" />
    <junction id="node_25" type="priority" x="26.24" y="-40.12" incLanes="" intLanes="" shape="" />
    <junction id="node_26" type="priority" x="146.00" y="-40.01" incLanes="" intLanes="" shape="" />
    <junction id="node_27" type="priority" x="200.06" y="-39.96" incLanes="" intLanes="" shape="" />
    <junction id="node_28" type="priority" x="-300.23" y="-238.54" incLanes="" intLanes="" shape="" />
    <junction id="node_29" type="priority" x="-245.42" y="-238.44" incLanes="" intLanes="" shape="" />
    <junction id="node_30" type="priority" x="-207.22" y="-238.37" incLanes="" intLanes="" shape="" />
    <junction id="node_31" type="priority" x="-122.27" y="-238.16" incLanes="" intLanes="" shape="" />
    <junction id="node_32" type="priority" x="-79.76" y="-238.02" incLanes="" intLanes="" shape="" />
    <junction id="node_33" type="priority" x="-20.95" y="-237.81" incLanes="" intLanes="" shape="" />
    <junction id="node_34" type="priority" x="-228.15" y="-51.38" incLanes="" intLanes="" shape="" />
    <junction id="node_35" type="priority" x="-108.16" y="-137.14" incLanes="" intLanes="" shape="" />
    <junction id="node_36" type="priority" x="-27.91" y="-137.32" incLanes="" intLanes="" shape="" />
    <junction id="node_37" type="priority" x="-22.15" y="-137.34" incLanes="" intLanes="" shape="" />
    <junction id="node_38" type="priority" x="505.32" y="-96.61" incLanes="" intLanes="" shape="" />
    <junction id="node_39" type="priority" x="218.80" y="-40.12" incLanes="" intLanes="" shape="" />
    <junction id="node_40" type="priority" x="-8.43" y="-360.21" incLanes="" intLanes="" shape="" />
    <junction id="node_41" type="priority" x="523.69" y="-20.86" incLanes="" intLanes="" shape="" />
    <junction id="node_42" type="priority" x="229.96" y="-40.11" incLanes="" intLanes="" shape="" />
    <junction id="node_43" type="priority" x="262.19" y="-40.10" incLanes="" intLanes="" shape="" />
    <junction id="node_44" type="priority" x="282.35" y="-40.09" incLanes="" intLanes="" shape="" />
    <junction id="node_45" type="priority" x="531.78" y="-39.97" incLanes="" intLanes="" shape="" />
    <junction id="node_46" type="priority" x="549.13" y="-39.96" incLanes="" intLanes="" shape="" />
    <junction id="node_47" type="priority" x="106.32" y="-235.31" incLanes="" intLanes="" shape="" />
    <junction id="node_48" type="priority" x="159.13" y="-191.80" incLanes="" intLanes="" shape="" />
    <junction id="node_49" type="priority" x="-0.19" y="-263.13" incLanes="" intLanes="" shape="" />
    <junction id="node_50" type="priority" x="-0.75" y="-227.61" incLanes="" intLanes="" shape="" />
    <junction id="node_51" type="priority" x="21.72" y="-137.77" incLanes="" intLanes="" shape="" />
    <junction id="node_52" type="priority" x="67.18" y="-137.95" incLanes="" intLanes="" shape="" />
    <junction id="node_53" type="priority" x="93.78" y="-138.06" incLanes="" intLanes="" shape="" />
    <junction id="node_54" type="priority" x="211.35" y="-138.55" incLanes="" intLanes="" shape="" />
    <junction id="node_55" type="priority" x="251.11" y="-138.71" incLanes="" intLanes="" shape="" />
    <junction id="node_56" type="priority" x="454.61" y="-139.54" incLanes="" intLanes="" shape="" />
    <junction id="node_57" type="priority" x="478.59" y="-139.64" incLanes="" intLanes="" shape="" />
    <junction id="node_58" type="priority" x="22.38" y="-239.28" incLanes="" intLanes="" shape="" />
    <junction id="node_59" type="priority" x="74.87" y="-239.30" incLanes="" intLanes="" shape="" />
    <junction id="node_60" type="priority" x="599.10" y="-239.48" incLanes="" intLanes="" shape="" />
    <junction id="node_61" type="priority" x="143.89" y="-13.08" incLanes="" intLanes="" shape="" />
    <junction id="node_62" type="priority" x="-249.26" y="-198.29" incLanes="" intLanes="" shape="" />
    <junction id="node_63" type="priority" x="-241.08" y="-226.33" incLanes="" intLanes="" shape="" />
    <junction id="node_64" type="priority" x="229.97" y="-54.61" incLanes="" intLanes="" shape="" />
    <junction id="node_65" type="priority" x="4.41" y="122.15" incLanes="" intLanes="" shape="" />
    <junction id="node_66" type="priority" x="307.37" y="11.81" incLanes="" intLanes="" shape="" />
    <junction id="node_67" type="priority" x="142.83" y="11.21" incLanes="" intLanes="" shape="" />
    <junction id="node_68" type="priority" x="25.12" y="10.78" incLanes="" intLanes="" shape="" />
    <junction id="node_69" type="priority" x="-22.76" y="10.60" incLanes="" intLanes="" shape="" />
    <junction id="node_70" type="priority" x="-29.59" y="10.58" incLanes="" intLanes="" shape="" />
    <junction id="node_71" type="priority" x="-199.56" y="9.96" incLanes="" intLanes="" shape="" />
    <junction id="node_72" type="priority" x="0.45" y="34.89" incLanes="" intLanes="" shape="" />
    <junction id="node_73" type="priority" x="0.24" y="3.20" incLanes="" intLanes="" shape="" />
    <junction id="node_74" type="priority" x="0.09" y="-18.35" incLanes="" intLanes="" shape="" />
    <junction id="node_75" type="priority" x="-0.01" y="-33.51" incLanes="" intLanes="" shape="" />
    <junction id="node_76" type="priority" x="-0.16" y="-64.45" incLanes="" intLanes="" shape="" />
    <junction id="node_77" type="priority" x="-153.29" y="-14.76" incLanes="" intLanes="" shape="" />
    <junction id="node_78" type="priority" x="-108.37" y="-148.59" incLanes="" intLanes="" shape="" />
    <junction id="node_79" type="priority" x="-71.87" y="-188.72" incLanes="" intLanes="" shape="" />
    <junction id="node_80" type="priority" x="11.68" y="-361.46" incLanes="" intLanes="" shape="" />
    <junction id="node_81" type="priority" x="10.88" y="-348.25" incLanes="" intLanes="" shape="" />
    <junction id="node_82" type="priority" x="162.91" y="-187.28" incLanes="" intLanes="" shape="" />
    <junction id="node_83" type="priority" x="-336.39" y="-232.39" incLanes="" intLanes="" shape="" />
    <junction id="node_84" type="priority" x="-199.60" y="20.46" incLanes="" intLanes="" shape="" />
    <junction id="node_85" type="priority" x="-199.78" y="-50.73" incLanes="" intLanes="" shape="" />
    <junction id="node_86" type="priority" x="211.29" y="-153.04" incLanes="" intLanes="" shape="" />
    <junction id="node_87" type="priority" x="168.36" y="-175.67" incLanes="" intLanes="" shape="" />
    <edge id="edge_0" from="node_0" to="node_0">
        <lane id="edge_0_0" index="0" speed="13.89" length="100.00" width="3.50" shape="7.25,-162.35 7.24,-161.73 7.24,-161.50 7.24,-161.26" />
        <lane id="edge_0_1" index="1" speed="13.89" length="100.00" width="3.50" shape="3.75,-162.38 3.74,-161.76 3.74,-161.53 3.74,-161.30" />
        <lane id="edge_0_2" index="2" speed="13.89" length="100.00" width="3.50" shape="0.25,-162.41 0.24,-161.79 0.24,-161.56 0.24,-161.33" />
        <lane id="edge_0_3" index="3" speed="13.89" length="100.00" width="3.50" shape="0.25,-162.41 0.24,-161.79 0.24,-161.56 0.24,-161.33" />
        <lane id="edge_0_4" index="4" speed="13.89" length="100.00" width="3.50" shape="0.25,-162.41 0.24,-161.79 0.24,-161.56 0.24,-161.33" />
        <lane id="edge_0_5" index="5" speed="13.89" length="100.00" width="3.50" shape="0.25,-162.41 0.24,-161.79 0.24,-161.56 0.24,-161.33" />
        <lane id="edge_0_6" index="6" speed="13.89" length="100.00" width="3.50" shape="0.25,-162.41 0.24,-161.79 0.24,-161.56 0.24,-161.33" />
    </edge>
    <edge id="edge_1" from="node_1" to="node_2">
        <lane id="edge_1_0" index="0" speed="13.89" length="100.00" width="3.50" shape="5.82,-125.05 5.73,-122.66 5.66,-120.26 5.60,-117.87 5.55,-115.47 5.51,-113.08 5.48,-110.68 5.48,-110.15" />
        <lane id="edge_1_1" index="1" speed="13.89" length="100.00" width="3.50" shape="2.32,-125.19 2.24,-122.77 2.16,-120.36 2.10,-117.95 2.05,-115.54 2.01,-113.12 1.98,-110.71 1.98,-110.18" />
        <lane id="edge_1_2" index="2" speed="13.89" length="100.00" width="3.50" shape="-1.18,-125.32 -1.26,-122.89 -1.34,-120.46 -1.40,-118.03 -1.45,-115.60 -1.49,-113.17 -1.52,-110.74 -1.52,-110.22" />
        <lane id="edge_1_3" index="3" speed="13.89" length="100.00" width="3.50" shape="-1.18,-125.32 -1.26,-122.89 -1.34,-120.46 -1.40,-118.03 -1.45,-115.60 -1.49,-113.17 -1.52,-110.74 -1.52,-110.22" />
        <lane id="edge_1_4" index="4" speed="13.89" length="100.00" width="3.50" shape="-1.18,-125.32 -1.26,-122.89 -1.34,-120.46 -1.40,-118.03 -1.45,-115.60 -1.49,-113.17 -1.52,-110.74 -1.52,-110.22" />
        <lane id="edge_1_5" index="5" speed="13.89" length="100.00" width="3.50" shape="-1.18,-125.32 -1.26,-122.89 -1.34,-120.46 -1.40,-118.03 -1.45,-115.60 -1.49,-113.17 -1.52,-110.74 -1.52,-110.22" />
        <lane id="edge_1_6" index="6" speed="13.89" length="100.00" width="3.50" shape="-1.18,-125.32 -1.26,-122.89 -1.34,-120.46 -1.40,-118.03 -1.45,-115.60 -1.49,-113.17 -1.52,-110.74 -1.52,-110.22" />
    </edge>
    <edge id="edge_2" from="node_3" to="node_4">
        <lane id="edge_2_0" index="0" speed="13.89" length="100.00" width="3.50" shape="193.08,-73.91 192.52,-74.35 191.96,-74.79 186.96,-78.70 181.98,-82.59 181.41,-83.03 180.84,-83.46" />
    </edge>
    <edge id="edge_3" from="node_5" to="node_6">
        <lane id="edge_3_0" index="0" speed="13.89" length="100.00" width="3.50" shape="530.94,-52.93 530.00,-53.47 529.08,-54.04 527.08,-55.40 525.19,-56.90 523.41,-58.54 521.75,-60.29 520.21,-62.16 518.81,-64.13 517.55,-66.19 516.45,-68.34 513.39,-74.81 510.34,-81.28 507.29,-87.74" />
    </edge>
    <edge id="edge_4" from="node_7" to="node_8">
        <lane id="edge_4_0" index="0" speed="13.89" length="100.00" width="3.50" shape="600.90,9.96 613.14,9.87 615.17,9.80 617.19,9.63 619.19,9.35 621.18,8.97 623.15,8.49 625.09,7.91 627.00,7.22 628.87,6.44 630.69,5.56 632.47,4.59 634.20,3.53 635.86,2.38 637.47,1.14 639.01,-0.17 640.48,-1.57 641.88,-3.04 643.19,-4.58 644.43,-6.18 645.58,-7.85 646.64,-9.58 647.61,-11.36 648.49,-13.18 649.27,-15.05 650.11,-17.26 650.91,-19.49 651.68,-21.73 652.41,-23.99 653.10,-26.25 653.75,-28.53 654.36,-30.82 654.94,-33.12 655.47,-35.42" />
        <lane id="edge_4_1" index="1" speed="13.89" length="100.00" width="3.50" shape="600.90,9.96 613.14,9.87 615.17,9.80 617.19,9.63 619.19,9.35 621.18,8.97 623.15,8.49 625.09,7.91 627.00,7.22 628.87,6.44 630.69,5.56 632.47,4.59 634.20,3.53 635.86,2.38 637.47,1.14 639.01,-0.17 640.48,-1.57 641.88,-3.04 643.19,-4.58 644.43,-6.18 645.58,-7.85 646.64,-9.58 647.61,-11.36 648.49,-13.18 649.27,-15.05 650.11,-17.26 650.91,-19.49 651.68,-21.73 652.41,-23.99 653.10,-26.25 653.75,-28.53 654.36,-30.82 654.94,-33.12 655.47,-35.42" />
        <lane id="edge_4_2" index="2" speed="13.89" length="100.00" width="3.50" shape="600.90,9.96 613.14,9.87 615.17,9.80 617.19,9.63 619.19,9.35 621.18,8.97 623.15,8.49 625.09,7.91 627.00,7.22 628.87,6.44 630.69,5.56 632.47,4.59 634.20,3.53 635.86,2.38 637.47,1.14 639.01,-0.17 640.48,-1.57 641.88,-3.04 643.19,-4.58 644.43,-6.18 645.58,-7.85 646.64,-9.58 647.61,-11.36 648.49,-13.18 649.27,-15.05 650.11,-17.26 650.91,-19.49 651.68,-21.73 652.41,-23.99 653.10,-26.25 653.75,-28.53 654.36,-30.82 654.94,-33.12 655.47,-35.42" />
        <lane id="edge_4_3" index="3" speed="13.89" length="100.00" width="3.50" shape="600.90,9.96 613.14,9.87 615.17,9.80 617.19,9.63 619.19,9.35 621.18,8.97 623.15,8.49 625.09,7.91 627.00,7.22 628.87,6.44 630.69,5.56 632.47,4.59 634.20,3.53 635.86,2.38 637.47,1.14 639.01,-0.17 640.48,-1.57 641.88,-3.04 643.19,-4.58 644.43,-6.18 645.58,-7.85 646.64,-9.58 647.61,-11.36 648.49,-13.18 649.27,-15.05 650.11,-17.26 650.91,-19.49 651.68,-21.73 652.41,-23.99 653.10,-26.25 653.75,-28.53 654.36,-30.82 654.94,-33.12 655.47,-35.42" />
        <lane id="edge_4_4" index="4" speed="13.89" length="100.00" width="3.50" shape="600.90,9.96 613.14,9.87 615.17,9.80 617.19,9.63 619.19,9.35 621.18,8.97 623.15,8.49 625.09,7.91 627.00,7.22 628.87,6.44 630.69,5.56 632.47,4.59 634.20,3.53 635.86,2.38 637.47,1.14 639.01,-0.17 640.48,-1.57 641.88,-3.04 643.19,-4.58 644.43,-6.18 645.58,-7.85 646.64,-9.58 647.61,-11.36 648.49,-13.18 649.27,-15.05 650.11,-17.26 650.91,-19.49 651.68,-21.73 652.41,-23.99 653.10,-26.25 653.75,-28.53 654.36,-30.82 654.94,-33.12 655.47,-35.42" />
    </edge>
    <edge id="edge_5" from="node_9" to="junction_218">
        <lane id="edge_5_0" index="0" speed="13.89" length="100.00" width="3.50" shape="658.46,-55.33 658.64,-57.85 658.77,-60.37 658.85,-62.89 658.89,-65.42 658.89,-67.94 658.83,-73.64 658.77,-79.33 658.70,-85.03 658.64,-90.72 658.58,-96.42 658.52,-102.12 658.46,-107.81 658.40,-113.51 658.33,-119.20 658.27,-124.90 658.21,-130.59 658.15,-136.29" />
        <lane id="edge_5_1" index="1" speed="13.89" length="100.00" width="3.50" shape="658.46,-55.33 658.64,-57.85 658.77,-60.37 658.85,-62.89 658.89,-65.42 658.89,-67.94 658.83,-73.64 658.77,-79.33 658.70,-85.03 658.64,-90.72 658.58,-96.42 658.52,-102.12 658.46,-107.81 658.40,-113.51 658.33,-119.20 658.27,-124.90 658.21,-130.59 658.15,-136.29" />
        <lane id="edge_5_2" index="2" speed="13.89" length="100.00" width="3.50" shape="658.46,-55.33 658.64,-57.85 658.77,-60.37 658.85,-62.89 658.89,-65.42 658.89,-67.94 658.83,-73.64 658.77,-79.33 658.70,-85.03 658.64,-90.72 658.58,-96.42 658.52,-102.12 658.46,-107.81 658.40,-113.51 658.33,-119.20 658.27,-124.90 658.21,-130.59 658.15,-136.29" />
        <lane id="edge_5_3" index="3" speed="13.89" length="100.00" width="3.50" shape="658.46,-55.33 658.64,-57.85 658.77,-60.37 658.85,-62.89 658.89,-65.42 658.89,-67.94 658.83,-73.64 658.77,-79.33 658.70,-85.03 658.64,-90.72 658.58,-96.42 658.52,-102.12 658.46,-107.81 658.40,-113.51 658.33,-119.20 658.27,-124.90 658.21,-130.59 658.15,-136.29" />
        <lane id="edge_5_4" index="4" speed="13.89" length="100.00" width="3.50" shape="658.46,-55.33 658.64,-57.85 658.77,-60.37 658.85,-62.89 658.89,-65.42 658.89,-67.94 658.83,-73.64 658.77,-79.33 658.70,-85.03 658.64,-90.72 658.58,-96.42 658.52,-102.12 658.46,-107.81 658.40,-113.51 658.33,-119.20 658.27,-124.90 658.21,-130.59 658.15,-136.29" />
    </edge>
    <edge id="edge_6" from="node_10" to="node_11">
        <lane id="edge_6_0" index="0" speed="13.89" length="100.00" width="3.50" shape="657.95,-154.88 657.86,-162.77 657.78,-170.65 657.69,-178.53" />
        <lane id="edge_6_1" index="1" speed="13.89" length="100.00" width="3.50" shape="657.95,-154.88 657.86,-162.77 657.78,-170.65 657.69,-178.53" />
        <lane id="edge_6_2" index="2" speed="13.89" length="100.00" width="3.50" shape="657.95,-154.88 657.86,-162.77 657.78,-170.65 657.69,-178.53" />
        <lane id="edge_6_3" index="3" speed="13.89" length="100.00" width="3.50" shape="657.95,-154.88 657.86,-162.77 657.78,-170.65 657.69,-178.53" />
        <lane id="edge_6_4" index="4" speed="13.89" length="100.00" width="3.50" shape="657.95,-154.88 657.86,-162.77 657.78,-170.65 657.69,-178.53" />
    </edge>
    <edge id="edge_7" from="junction_230" to="node_12">
        <lane id="edge_7_0" index="0" speed="13.89" length="100.00" width="3.01" shape="-214.54,-145.26 -217.10,-145.74 -219.63,-146.37 -222.12,-147.15 -224.56,-148.08 -226.93,-149.16 -229.24,-150.38 -231.46,-151.73 -235.93,-154.64 -237.95,-156.06 -239.87,-157.61 -241.67,-159.30 -243.36,-161.10 -244.91,-163.02 -246.33,-165.03 -247.61,-167.15 -248.74,-169.34 -249.71,-171.61 -250.52,-173.94 -251.17,-176.32 -251.66,-178.74 -251.97,-181.19 -252.12,-183.65 -252.29,-190.67" />
    </edge>
    <edge id="edge_8" from="node_13" to="node_4">
        <lane id="edge_8_0" index="0" speed="13.89" length="100.00" width="3.50" shape="93.53,-132.98 95.58,-132.48 97.62,-131.96 99.66,-131.41 101.68,-130.85 103.71,-130.27 105.73,-129.66 107.74,-129.04 109.75,-128.40 111.75,-127.74 113.74,-127.06 115.73,-126.37 117.71,-125.65 119.68,-124.91 121.65,-124.16 123.61,-123.38 125.56,-122.59 127.51,-121.78 129.44,-120.95 131.37,-120.10 133.29,-119.23 135.20,-118.35 137.10,-117.44 139.00,-116.52 140.88,-115.58 142.76,-114.62 144.62,-113.64 146.48,-112.65 148.33,-111.64 150.17,-110.61 151.99,-109.56 153.81,-108.49 155.62,-107.41 157.41,-106.31 159.20,-105.19 160.97,-104.06 162.74,-102.91 164.49,-101.74 166.23,-100.56 167.96,-99.35 169.68,-98.14 171.39,-96.90 173.08,-95.65 183.91,-87.57" />
    </edge>
    <edge id="edge_9" from="node_14" to="node_15">
        <lane id="edge_9_0" index="0" speed="13.89" length="100.00" width="3.50" shape="-81.92,-229.11 -80.23,-227.38 -78.63,-225.55 -77.14,-223.64 -75.77,-221.64 -74.51,-219.57 -73.37,-217.43 -72.36,-215.22 -71.48,-212.97 -70.72,-210.66 -70.10,-208.32 -69.62,-205.94 -69.27,-203.54 -69.07,-201.13 -68.73,-195.22" />
    </edge>
    <edge id="edge_10" from="node_16" to="node_17">
        <lane id="edge_10_0" index="0" speed="13.89" length="100.00" width="3.50" shape="20.58,117.28 24.05,128.83 24.86,132.52 25.09,136.28 24.75,140.03 23.84,143.69 22.38,147.17 20.40,150.38 17.96,153.25 15.11,155.72 11.92,157.72 8.45,159.21 4.80,160.15 1.05,160.53 -2.72,160.33 -6.42,159.56 -9.96,158.25 -13.27,156.42 -16.26,154.12 -18.88,151.39 -21.05,148.30 -22.74,144.92 -23.89,141.32 -24.50,137.59 -24.53,133.81 -24.00,130.07 -21.42,118.38" />
        <lane id="edge_10_1" index="1" speed="13.89" length="100.00" width="3.50" shape="17.22,118.29 20.70,129.84 21.39,133.00 21.59,136.23 21.30,139.45 20.52,142.59 19.27,145.57 17.57,148.32 15.48,150.79 13.03,152.90 10.29,154.62 7.32,155.90 4.19,156.71 0.97,157.03 -2.27,156.86 -5.46,156.20 -8.51,155.07 -11.35,153.50 -13.93,151.52 -16.17,149.17 -18.04,146.51 -19.49,143.60 -20.49,140.50 -21.01,137.30 -21.04,134.05 -20.58,130.83 -18.01,119.14" />
        <lane id="edge_10_2" index="2" speed="13.89" length="100.00" width="3.50" shape="13.87,119.30 17.35,130.85 17.93,133.49 18.09,136.18 17.85,138.86 17.20,141.48 16.15,143.97 14.74,146.27 12.99,148.32 10.95,150.09 8.67,151.52 6.19,152.58 3.58,153.26 0.89,153.53 -1.83,153.38 -4.49,152.83 -7.05,151.89 -9.43,150.57 -11.59,148.91 -13.47,146.94 -15.04,144.72 -16.25,142.28 -17.09,139.69 -17.52,137.00 -17.55,134.28 -17.16,131.58 -14.59,119.89" />
    </edge>
    <edge id="edge_11" from="node_18" to="node_19">
        <lane id="edge_11_0" index="0" speed="13.89" length="100.00" width="3.50" shape="-339.67,-240.51 -341.54,-239.70 -343.36,-238.80 -345.15,-237.81 -346.88,-236.74 -348.56,-235.58 -350.18,-234.35 -351.74,-233.03 -353.23,-231.64 -354.65,-230.18 -356.00,-228.66 -357.27,-227.07 -358.46,-225.41 -359.57,-223.70 -360.60,-221.94 -361.54,-220.14 -362.39,-218.28 -363.15,-216.39 -363.81,-214.47 -364.38,-212.51 -364.86,-210.53 -365.23,-208.53 -365.51,-206.51 -365.69,-204.48 -365.77,-202.44 -365.87,-196.24 -365.96,-190.03 -366.05,-183.83 -366.14,-177.63 -366.24,-171.43 -366.33,-165.22 -366.42,-159.50 -366.50,-153.78 -366.59,-148.06 -366.67,-142.33 -366.76,-136.61 -366.84,-130.89 -366.93,-125.17 -367.02,-119.44 -367.10,-113.72 -367.19,-108.00 -367.22,-105.48 -367.24,-102.96 -367.24,-100.44 -367.24,-97.91 -367.22,-95.39 -367.18,-92.87 -367.14,-90.35 -367.00,-83.70 -366.87,-77.05 -366.73,-70.40 -366.60,-63.75 -366.52,-61.69 -366.39,-59.63 -366.19,-57.57 -365.93,-55.52 -365.61,-53.48 -365.22,-51.46 -364.78,-49.44 -364.27,-47.44 -363.71,-45.45 -363.08,-43.48 -362.40,-41.54 -361.65,-39.61 -360.85,-37.71 -359.99,-35.83 -359.08,-33.98 -358.11,-32.16 -357.08,-30.36 -356.00,-28.60 -354.87,-26.88 -353.69,-25.18 -352.45,-23.53 -351.17,-21.91 -349.84,-20.33 -348.46,-18.80 -347.04,-17.30 -345.57,-15.85 -344.05,-14.45 -342.50,-13.09 -340.90,-11.78 -339.27,-10.51 -337.60,-9.30 -332.44,-5.68 -330.76,-4.51 -329.05,-3.37 -327.33,-2.26 -325.60,-1.17 -323.84,-0.12 -322.07,0.92 -320.28,1.92 -318.48,2.90 -316.67,3.84 -314.83,4.76 -312.99,5.66 -311.13,6.52 -309.26,7.35 -307.37,8.16 -305.48,8.93 -303.57,9.68 -301.65,10.40 -299.72,11.08 -297.78,11.74 -295.83,12.37 -293.87,12.96 -291.90,13.53 -289.92,14.07 -287.93,14.57 -285.94,15.04 -283.94,15.49 -281.93,15.90 -279.92,16.28 -277.90,16.63 -275.87,16.95 -273.84,17.24 -271.81,17.49 -269.77,17.72 -267.73,17.91 -265.69,18.07 -263.65,18.20 -261.60,18.30 -259.55,18.36 -257.50,18.40 -250.52,18.46 -243.55,18.52 -236.57,18.59 -229.59,18.65" />
        <lane id="edge_11_1" index="1" speed="13.89" length="100.00" width="3.50" shape="-339.67,-240.51 -341.54,-239.70 -343.36,-238.80 -345.15,-237.81 -346.88,-236.74 -348.56,-235.58 -350.18,-234.35 -351.74,-233.03 -353.23,-231.64 -354.65,-230.18 -356.00,-228.66 -357.27,-227.07 -358.46,-225.41 -359.57,-223.70 -360.60,-221.94 -361.54,-220.14 -362.39,-218.28 -363.15,-216.39 -363.81,-214.47 -364.38,-212.51 -364.86,-210.53 -365.23,-208.53 -365.51,-206.51 -365.69,-204.48 -365.77,-202.44 -365.87,-196.24 -365.96,-190.03 -366.05,-183.83 -366.14,-177.63 -366.24,-171.43 -366.33,-165.22 -366.42,-159.50 -366.50,-153.78 -366.59,-148.06 -366.67,-142.33 -366.76,-136.61 -366.84,-130.89 -366.93,-125.17 -367.02,-119.44 -367.10,-113.72 -367.19,-108.00 -367.22,-105.48 -367.24,-102.96 -367.24,-100.44 -367.24,-97.91 -367.22,-95.39 -367.18,-92.87 -367.14,-90.35 -367.00,-83.70 -366.87,-77.05 -366.73,-70.40 -366.60,-63.75 -366.52,-61.69 -366.39,-59.63 -366.19,-57.57 -365.93,-55.52 -365.61,-53.48 -365.22,-51.46 -364.78,-49.44 -364.27,-47.44 -363.71,-45.45 -363.08,-43.48 -362.40,-41.54 -361.65,-39.61 -360.85,-37.71 -359.99,-35.83 -359.08,-33.98 -358.11,-32.16 -357.08,-30.36 -356.00,-28.60 -354.87,-26.88 -353.69,-25.18 -352.45,-23.53 -351.17,-21.91 -349.84,-20.33 -348.46,-18.80 -347.04,-17.30 -345.57,-15.85 -344.05,-14.45 -342.50,-13.09 -340.90,-11.78 -339.27,-10.51 -337.60,-9.30 -332.44,-5.68 -330.76,-4.51 -329.05,-3.37 -327.33,-2.26 -325.60,-1.17 -323.84,-0.12 -322.07,0.92 -320.28,1.92 -318.48,2.90 -316.67,3.84 -314.83,4.76 -312.99,5.66 -311.13,6.52 -309.26,7.35 -307.37,8.16 -305.48,8.93 -303.57,9.68 -301.65,10.40 -299.72,11.08 -297.78,11.74 -295.83,12.37 -293.87,12.96 -291.90,13.53 -289.92,14.07 -287.93,14.57 -285.94,15.04 -283.94,15.49 -281.93,15.90 -279.92,16.28 -277.90,16.63 -275.87,16.95 -273.84,17.24 -271.81,17.49 -269.77,17.72 -267.73,17.91 -265.69,18.07 -263.65,18.20 -261.60,18.30 -259.55,18.36 -257.50,18.40 -250.52,18.46 -243.55,18.52 -236.57,18.59 -229.59,18.65" />
        <lane id="edge_11_2" index="2" speed="13.89" length="100.00" width="3.50" shape="-339.67,-240.51 -341.54,-239.70 -343.36,-238.80 -345.15,-237.81 -346.88,-236.74 -348.56,-235.58 -350.18,-234.35 -351.74,-233.03 -353.23,-231.64 -354.65,-230.18 -356.00,-228.66 -357.27,-227.07 -358.46,-225.41 -359.57,-223.70 -360.60,-221.94 -361.54,-220.14 -362.39,-218.28 -363.15,-216.39 -363.81,-214.47 -364.38,-212.51 -364.86,-210.53 -365.23,-208.53 -365.51,-206.51 -365.69,-204.48 -365.77,-202.44 -365.87,-196.24 -365.96,-190.03 -366.05,-183.83 -366.14,-177.63 -366.24,-171.43 -366.33,-165.22 -366.42,-159.50 -366.50,-153.78 -366.59,-148.06 -366.67,-142.33 -366.76,-136.61 -366.84,-130.89 -366.93,-125.17 -367.02,-119.44 -367.10,-113.72 -367.19,-108.00 -367.22,-105.48 -367.24,-102.96 -367.24,-100.44 -367.24,-97.91 -367.22,-95.39 -367.18,-92.87 -367.14,-90.35 -367.00,-83.70 -366.87,-77.05 -366.73,-70.40 -366.60,-63.75 -366.52,-61.69 -366.39,-59.63 -366.19,-57.57 -365.93,-55.52 -365.61,-53.48 -365.22,-51.46 -364.78,-49.44 -364.27,-47.44 -363.71,-45.45 -363.08,-43.48 -362.40,-41.54 -361.65,-39.61 -360.85,-37.71 -359.99,-35.83 -359.08,-33.98 -358.11,-32.16 -357.08,-30.36 -356.00,-28.60 -354.87,-26.88 -353.69,-25.18 -352.45,-23.53 -351.17,-21.91 -349.84,-20.33 -348.46,-18.80 -347.04,-17.30 -345.57,-15.85 -344.05,-14.45 -342.50,-13.09 -340.90,-11.78 -339.27,-10.51 -337.60,-9.30 -332.44,-5.68 -330.76,-4.51 -329.05,-3.37 -327.33,-2.26 -325.60,-1.17 -323.84,-0.12 -322.07,0.92 -320.28,1.92 -318.48,2.90 -316.67,3.84 -314.83,4.76 -312.99,5.66 -311.13,6.52 -309.26,7.35 -307.37,8.16 -305.48,8.93 -303.57,9.68 -301.65,10.40 -299.72,11.08 -297.78,11.74 -295.83,12.37 -293.87,12.96 -291.90,13.53 -289.92,14.07 -287.93,14.57 -285.94,15.04 -283.94,15.49 -281.93,15.90 -279.92,16.28 -277.90,16.63 -275.87,16.95 -273.84,17.24 -271.81,17.49 -269.77,17.72 -267.73,17.91 -265.69,18.07 -263.65,18.20 -261.60,18.30 -259.55,18.36 -257.50,18.40 -250.52,18.46 -243.55,18.52 -236.57,18.59 -229.59,18.65" />