<?xml version='1.0' encoding='UTF-8'?>
<net version="1.20" junctionCornerDetail="5" limitTurnSpeed="5.50">
    <junction id="junction_20" type="traffic_light" x="188.94" y="-239.27" incLanes="" intLanes="" shape="" />
    <junction id="junction_55" type="traffic_light" x="46.56" y="-239.10" incLanes="" intLanes="" shape="" />
    <junction id="junction_90" type="traffic_light" x="133.89" y="-236.51" incLanes="" intLanes="" shape="" />
    <junction id="junction_125" type="traffic_light" x="43.73" y="-192.58" incLanes="" intLanes="" shape="" />
    <junction id="junction_160" type="traffic_light" x="188.99" y="-189.78" incLanes="" intLanes="" shape="" />
    <junction id="junction_195" type="traffic_light" x="44.00" y="-302.09" incLanes="" intLanes="" shape="" />
    <junction id="junction_230" type="traffic_light" x="-2.50" y="-190.04" incLanes="" intLanes="" shape="" />
    <junction id="junction_265" type="traffic_light" x="134.00" y="-192.42" incLanes="" intLanes="" shape="" />
    <junction id="node_0" type="priority" x="-5.37" y="-294.70" incLanes="" intLanes="" shape="" />
    <junction id="node_1" type="priority" x="-5.36" y="-117.56" incLanes="" intLanes="" shape="" />
    <junction id="node_2" type="priority" x="4.62" y="-304.56" incLanes="" intLanes="" shape="" />
    <junction id="node_3" type="priority" x="181.50" y="-107.42" incLanes="" intLanes="" shape="" />
    <junction id="node_4" type="priority" x="191.74" y="-118.07" incLanes="" intLanes="" shape="" />
    <junction id="node_5" type="priority" x="4.80" y="-107.55" incLanes="" intLanes="" shape="" />
    <junction id="node_6" type="priority" x="191.67" y="-294.58" incLanes="" intLanes="" shape="" />
    <junction id="node_7" type="priority" x="-8.22" y="-111.92" incLanes="" intLanes="" shape="" />
    <junction id="node_8" type="priority" x="194.63" y="-299.91" incLanes="" intLanes="" shape="" />
    <junction id="node_9" type="priority" x="180.82" y="-304.50" incLanes="" intLanes="" shape="" />
    <edge id="edge_0" from="node_0" to="junction_230">
        <lane id="edge_0_0" index="0" speed="13.89" length="100.00" width="4.00" shape="-3.37,-294.70 -3.38,-288.45 -3.39,-282.20 -3.40,-275.95 -3.41,-269.70 -3.42,-263.45 -3.43,-257.21 -3.44,-250.96 -3.44,-250.62 -3.44,-250.28 -3.44,-244.00 -3.44,-237.72 -3.44,-231.44 -3.45,-225.17 -3.45,-218.89 -3.45,-212.61 -3.45,-206.33 -3.45,-198.23" />
        <lane id="edge_0_1" index="1" speed="13.89" length="100.00" width="4.00" shape="-3.37,-294.70 -3.38,-288.45 -3.39,-282.20 -3.40,-275.95 -3.41,-269.70 -3.42,-263.45 -3.43,-257.21 -3.44,-250.96 -3.44,-250.62 -3.44,-250.28 -3.44,-244.00 -3.44,-237.72 -3.44,-231.44 -3.45,-225.17 -3.45,-218.89 -3.45,-212.61 -3.45,-206.33 -3.45,-198.23" />
    </edge>
    <edge id="edge_1" from="junction_230" to="node_1">
        <lane id="edge_1_0" index="0" speed="13.89" length="100.00" width="4.00" shape="-3.46,-182.32 -3.46,-172.49 -3.46,-162.66 -3.46,-162.04 -3.46,-161.43 -3.44,-155.16 -3.43,-148.89 -3.42,-142.63 -3.40,-136.36 -3.39,-130.10 -3.37,-123.83 -3.36,-117.56" />
        <lane id="edge_1_1" index="1" speed="13.89" length="100.00" width="4.00" shape="-3.46,-182.32 -3.46,-172.49 -3.46,-162.66 -3.46,-162.04 -3.46,-161.43 -3.44,-155.16 -3.43,-148.89 -3.42,-142.63 -3.40,-136.36 -3.39,-130.10 -3.37,-123.83 -3.36,-117.56" />
    </edge>
    <edge id="edge_2" from="node_2" to="node_0">
        <lane id="edge_2_0" index="0" speed="13.89" length="100.00" width="4.00" shape="4.62,-302.56 3.58,-302.56 0.94,-302.10 -1.38,-300.78 -2.84,-298.88 -3.37,-296.55 -3.37,-294.70" />
        <lane id="edge_2_1" index="1" speed="13.89" length="100.00" width="4.00" shape="4.62,-302.56 3.58,-302.56 0.94,-302.10 -1.38,-300.78 -2.84,-298.88 -3.37,-296.55 -3.37,-294.70" />
    </edge>
    <edge id="edge_3" from="node_3" to="node_4">
        <lane id="edge_3_0" index="0" speed="13.89" length="100.00" width="4.00" shape="181.50,-109.42 181.55,-109.42 184.68,-110.03 187.35,-111.77 189.12,-114.37 189.74,-117.45 189.74,-118.07" />
        <lane id="edge_3_1" index="1" speed="13.89" length="100.00" width="4.00" shape="181.50,-109.42 181.55,-109.42 184.68,-110.03 187.35,-111.77 189.12,-114.37 189.74,-117.45 189.74,-118.07" />
    </edge>
    <edge id="edge_4" from="junction_230" to="junction_125">
        <lane id="edge_4_0" index="0" speed="13.89" length="100.00" width="4.00" shape="3.40,-191.55 9.98,-191.56 16.56,-191.56 23.15,-191.56 29.73,-191.57 36.31,-191.57" />
        <lane id="edge_4_1" index="1" speed="13.89" length="100.00" width="4.00" shape="3.40,-191.55 9.98,-191.56 16.56,-191.56 23.15,-191.56 29.73,-191.57 36.31,-191.57" />
    </edge>
    <edge id="edge_5" from="junction_125" to="junction_265">
        <lane id="edge_5_0" index="0" speed="13.89" length="100.00" width="4.00" shape="51.03,-191.58 56.44,-191.58 61.85,-191.58 67.26,-191.58 72.67,-191.59 78.08,-191.59 83.49,-191.59 88.90,-191.59 94.31,-191.60 99.72,-191.60 105.13,-191.60 110.53,-191.60 115.94,-191.61 121.35,-191.61 126.76,-191.61" />
        <lane id="edge_5_1" index="1" speed="13.89" length="100.00" width="4.00" shape="51.03,-191.58 56.44,-191.58 61.85,-191.58 67.26,-191.58 72.67,-191.59 78.08,-191.59 83.49,-191.59 88.90,-191.59 94.31,-191.60 99.72,-191.60 105.13,-191.60 110.53,-191.60 115.94,-191.61 121.35,-191.61 126.76,-191.61" />
    </edge>
    <edge id="edge_6" from="junction_265" to="junction_160">
        <lane id="edge_6_0" index="0" speed="13.89" length="100.00" width="4.00" shape="141.08,-191.62 147.15,-191.62 153.22,-191.62 159.30,-191.63 165.37,-191.63 171.44,-191.63 177.51,-191.63 183.59,-191.64" />
        <lane id="edge_6_1" index="1" speed="13.89" length="100.00" width="4.00" shape="141.08,-191.62 147.15,-191.62 153.22,-191.62 159.30,-191.63 165.37,-191.63 171.44,-191.63 177.51,-191.63 183.59,-191.64" />
    </edge>
    <edge id="edge_7" from="junction_195" to="junction_55">
        <lane id="edge_7_0" index="0" speed="13.89" length="100.00" width="4.00" shape="45.86,-297.21 45.86,-291.65 45.86,-286.08 45.86,-280.52 45.86,-274.95 45.86,-269.38 45.86,-263.82 45.86,-258.25 45.86,-252.69 45.86,-247.12" />
        <lane id="edge_7_1" index="1" speed="13.89" length="100.00" width="4.00" shape="45.86,-297.21 45.86,-291.65 45.86,-286.08 45.86,-280.52 45.86,-274.95 45.86,-269.38 45.86,-263.82 45.86,-258.25 45.86,-252.69 45.86,-247.12" />
    </edge>
    <edge id="edge_8" from="junction_55" to="junction_125">
        <lane id="edge_8_0" index="0" speed="13.89" length="100.00" width="4.00" shape="45.85,-231.31 45.85,-224.77 45.85,-218.22 45.85,-211.67 45.85,-205.13 45.85,-198.58" />
        <lane id="edge_8_1" index="1" speed="13.89" length="100.00" width="4.00" shape="45.85,-231.31 45.85,-224.77 45.85,-218.22 45.85,-211.67 45.85,-205.13 45.85,-198.58" />
    </edge>
    <edge id="edge_9" from="junction_90" to="junction_265">
        <lane id="edge_9_0" index="0" speed="13.89" length="100.00" width="4.00" shape="136.12,-231.67 136.12,-224.95 136.13,-218.22 136.14,-211.49 136.14,-204.77 136.15,-198.04" />
        <lane id="edge_9_1" index="1" speed="13.89" length="100.00" width="4.00" shape="136.12,-231.67 136.12,-224.95 136.13,-218.22 136.14,-211.49 136.14,-204.77 136.15,-198.04" />
    </edge>
    <edge id="edge_10" from="junction_20" to="junction_90">
        <lane id="edge_10_0" index="0" speed="13.89" length="100.00" width="4.00" shape="183.43,-236.95 177.49,-236.95 171.54,-236.95 165.60,-236.94 159.66,-236.94 153.71,-236.94 147.77,-236.93 141.82,-236.93" />
        <lane id="edge_10_1" index="1" speed="13.89" length="100.00" width="4.00" shape="183.43,-236.95 177.49,-236.95 171.54,-236.95 165.60,-236.94 159.66,-236.94 153.71,-236.94 147.77,-236.93 141.82,-236.93" />
    </edge>
    <edge id="edge_11" from="junction_90" to="junction_55">
        <lane id="edge_11_0" index="0" speed="13.89" length="100.00" width="4.00" shape="125.75,-236.92 120.07,-236.92 114.40,-236.91 108.72,-236.91 103.05,-236.91 97.37,-236.90 91.70,-236.90 86.03,-236.90 80.35,-236.89 74.68,-236.89 69.00,-236.89 63.33,-236.88 57.65,-236.88 51.98,-236.88" />
        <lane id="edge_11_1" index="1" speed="13.89" length="100.00" width="4.00" shape="125.75,-236.92 120.07,-236.92 114.40,-236.91 108.72,-236.91 103.05,-236.91 97.37,-236.90 91.70,-236.90 86.03,-236.90 80.35,-236.89 74.68,-236.89 69.00,-236.89 63.33,-236.88 57.65,-236.88 51.98,-236.88" />
    </edge>
    <edge id="edge_12" from="node_3" to="node_5">
        <lane id="edge_12_0" index="0" speed="13.89" length="100.00" width="4.00" shape="181.50,-105.42 175.24,-105.42 168.98,-105.43 162.71,-105.43 156.45,-105.44 150.19,-105.44 143.93,-105.45 137.67,-105.45 137.33,-105.45 136.99,-105.45 130.74,-105.45 124.49,-105.44 118.24,-105.44 111.98,-105.43 105.73,-105.43 99.48,-105.42 93.23,-105.42 87.08,-105.42 80.93,-105.41 74.78,-105.41 68.64,-105.40 62.49,-105.40 56.34,-105.39 50.19,-105.39 49.12,-105.39 48.04,-105.39 41.86,-105.42 35.68,-105.44 29.51,-105.46 23.33,-105.48 17.15,-105.51 10.97,-105.53 4.79,-105.55" />
        <lane id="edge_12_1" index="1" speed="13.89" length="100.00" width="4.00" shape="181.50,-105.42 175.24,-105.42 168.98,-105.43 162.71,-105.43 156.45,-105.44 150.19,-105.44 143.93,-105.45 137.67,-105.45 137.33,-105.45 136.99,-105.45 130.74,-105.45 124.49,-105.44 118.24,-105.44 111.98,-105.43 105.73,-105.43 99.48,-105.42 93.23,-105.42 87.08,-105.42 80.93,-105.41 74.78,-105.41 68.64,-105.40 62.49,-105.40 56.34,-105.39 50.19,-105.39 49.12,-105.39 48.04,-105.39 41.86,-105.42 35.68,-105.44 29.51,-105.46 23.33,-105.48 17.15,-105.51 10.97,-105.53 4.79,-105.55" />
    </edge>
    <edge id="edge_13" from="node_6" to="junction_20">
        <lane id="edge_13_0" index="0" speed="13.89" length="100.00" width="4.00" shape="193.67,-294.58 193.67,-288.35 193.68,-282.11 193.68,-275.88 193.69,-269.65 193.69,-263.42 193.70,-257.18 193.70,-250.95 193.70,-250.72 193.70,-250.49 193.70,-247.35" />
        <lane id="edge_13_1" index="1" speed="13.89" length="100.00" width="4.00" shape="193.67,-294.58 193.67,-288.35 193.68,-282.11 193.68,-275.88 193.69,-269.65 193.69,-263.42 193.70,-257.18 193.70,-250.95 193.70,-250.72 193.70,-250.49 193.70,-247.35" />
    </edge>
    <edge id="edge_14" from="junction_20" to="junction_160">
        <lane id="edge_14_0" index="0" speed="13.89" length="100.00" width="4.00" shape="193.70,-231.50 193.69,-225.24 193.69,-218.99 193.69,-212.73 193.69,-206.48 193.69,-197.36" />
        <lane id="edge_14_1" index="1" speed="13.89" length="100.00" width="4.00" shape="193.70,-231.50 193.69,-225.24 193.69,-218.99 193.69,-212.73 193.69,-206.48 193.69,-197.36" />
    </edge>
    <edge id="edge_15" from="junction_160" to="node_4">
        <lane id="edge_15_0" index="0" speed="13.89" length="100.00" width="4.00" shape="193.68,-182.34 193.68,-172.49 193.68,-162.64 193.68,-162.24 193.68,-161.85 193.69,-155.59 193.70,-149.34 193.71,-143.09 193.71,-136.83 193.72,-130.58 193.73,-124.33 193.74,-118.07" />
        <lane id="edge_15_1" index="1" speed="13.89" length="100.00" width="4.00" shape="193.68,-182.34 193.68,-172.49 193.68,-162.64 193.68,-162.24 193.68,-161.85 193.69,-155.59 193.70,-149.34 193.71,-143.09 193.71,-136.83 193.72,-130.58 193.73,-124.33 193.74,-118.07" />
    </edge>
    <edge id="edge_16" from="node_1" to="node_7">
        <lane id="edge_16_0" index="0" speed="13.89" length="100.00" width="4.00" shape="-3.36,-117.56 -3.36,-116.56 -2.70,-113.80 -0.88,-111.62 -0.51,-111.34 2.00,-110.01 4.81,-109.55" />
        <lane id="edge_16_1" index="1" speed="13.89" length="100.00" width="4.00" shape="-3.36,-117.56 -3.36,-116.56 -2.70,-113.80 -0.88,-111.62 -0.51,-111.34 2.00,-110.01 4.81,-109.55" />
    </edge>
    <edge id="edge_17" from="node_6" to="node_8">
        <lane id="edge_17_0" index="0" speed="13.89" length="100.00" width="4.00" shape="189.67,-294.58 189.67,-294.89 189.35,-296.94 188.42,-298.80 186.96,-300.28 186.53,-300.60 183.83,-302.01 180.82,-302.50" />
        <lane id="edge_17_1" index="1" speed="13.89" length="100.00" width="4.00" shape="189.67,-294.58 189.67,-294.89 189.35,-296.94 188.42,-298.80 186.96,-300.28 186.53,-300.60 183.83,-302.01 180.82,-302.50" />
    </edge>
    <edge id="edge_18" from="node_2" to="junction_195">
        <lane id="edge_18_0" index="0" speed="13.89" length="100.00" width="4.00" shape="4.62,-306.56 10.96,-306.56 17.30,-306.55 23.64,-306.55 29.97,-306.54 36.31,-306.54" />
        <lane id="edge_18_1" index="1" speed="13.89" length="100.00" width="4.00" shape="4.62,-306.56 10.96,-306.56 17.30,-306.55 23.64,-306.55 29.97,-306.54 36.31,-306.54" />
    </edge>
    <edge id="edge_19" from="junction_195" to="node_9">
        <lane id="edge_19_0" index="0" speed="13.89" length="100.00" width="4.00" shape="51.83,-306.53 57.69,-306.53 63.56,-306.54 69.42,-306.54 75.29,-306.54 81.16,-306.54 87.02,-306.54 92.89,-306.54 99.15,-306.55 105.41,-306.55 111.67,-306.55 117.94,-306.55 124.20,-306.56 130.46,-306.56 136.72,-306.56 137.15,-306.56 137.58,-306.56 143.76,-306.55 149.94,-306.54 156.11,-306.53 162.29,-306.53 168.47,-306.52 174.65,-306.51 180.82,-306.50" />
        <lane id="edge_19_1" index="1" speed="13.89" length="100.00" width="4.00" shape="51.83,-306.53 57.69,-306.53 63.56,-306.54 69.42,-306.54 75.29,-306.54 81.16,-306.54 87.02,-306.54 92.89,-306.54 99.15,-306.55 105.41,-306.55 111.67,-306.55 117.94,-306.55 124.20,-306.56 130.46,-306.56 136.72,-306.56 137.15,-306.56 137.58,-306.56 143.76,-306.55 149.94,-306.54 156.11,-306.53 162.29,-306.53 168.47,-306.52 174.65,-306.51 180.82,-306.50" />
    </edge>
    <connection from="edge_1" to="edge_16" fromLane="0" toLane="0" dir="s" state="M" />
    <connection from="edge_1" to="edge_16" fromLane="1" toLane="1" dir="s" state="M" />
    <connection from="edge_2" to="edge_0" fromLane="0" toLane="0" dir="s" state="M" />
    <connection from="edge_2" to="edge_0" fromLane="1" toLane="1" dir="s" state="M" />
    <connection from="edge_3" to="edge_15" fromLane="0" toLane="0" dir="s" state="M" />
    <connection from="edge_3" to="edge_15" fromLane="1" toLane="1" dir="s" state="M" />
    <connection from="edge_12" to="edge_16" fromLane="0" toLane="0" dir="s" state="M" />
    <connection from="edge_12" to="edge_16" fromLane="1" toLane="1" dir="s" state="M" />
    <connection from="edge_15" to="edge_3" fromLane="0" toLane="0" dir="s" state="M" />
    <connection from="edge_15" to="edge_3" fromLane="1" toLane="1" dir="s" state="M" />
    <connection from="edge_16" to="edge_12" fromLane="0" toLane="0" dir="s" state="M" />
    <connection from="edge_16" to="edge_12" fromLane="1" toLane="1" dir="s" state="M" />
    <connection from="edge_17" to="edge_19" fromLane="0" toLane="0" dir="s" state="M" />
    <connection from="edge_17" to="edge_19" fromLane="1" toLane="1" dir="s" state="M" />
    <connection from="edge_19" to="edge_17" fromLane="0" toLane="0" dir="s" state="M" />
    <connection from="edge_19" to="edge_17" fromLane="1" toLane="1" dir="s" state="M" />
</net>