<?xml version='1.0' encoding='utf-8'?>
<edges>
    <edge id="0_forward" from="node_0" to="junction_43" numLanes="1" speed="13.89" name="Road 0" />
    <edge id="0_backward" from="junction_43" to="node_0" numLanes="1" speed="13.89" name="Road 0" />
    <edge id="1_forward" from="junction_43" to="junction_26" numLanes="1" speed="13.89" name="Road 1" />
    <edge id="1_backward" from="junction_26" to="junction_43" numLanes="1" speed="13.89" name="Road 1" />
    <edge id="2_forward" from="junction_26" to="junction_77" numLanes="1" speed="13.89" name="Road 2" />
    <edge id="2_backward" from="junction_77" to="junction_26" numLanes="1" speed="13.89" name="Road 2" />
    <edge id="3_forward" from="junction_77" to="node_7" numLanes="1" speed="13.89" name="Road 3" />
    <edge id="3_backward" from="node_7" to="junction_77" numLanes="1" speed="13.89" name="Road 3" />
    <edge id="4_forward" from="junction_156" to="junction_139" numLanes="1" speed="13.89" name="Road 4" />
    <edge id="4_backward" from="junction_139" to="junction_156" numLanes="1" speed="13.89" name="Road 4" />
    <edge id="5_forward" from="node_10" to="junction_195" numLanes="1" speed="13.89" name="Road 5" />
    <edge id="5_backward" from="junction_195" to="node_10" numLanes="1" speed="13.89" name="Road 5" />
    <edge id="6_forward" from="junction_195" to="junction_60" numLanes="1" speed="13.89" name="Road 6" />
    <edge id="6_backward" from="junction_60" to="junction_195" numLanes="1" speed="13.89" name="Road 6" />
    <edge id="7_forward" from="junction_60" to="node_15" numLanes="1" speed="13.89" name="Road 7" />
    <edge id="7_backward" from="node_15" to="junction_60" numLanes="1" speed="13.89" name="Road 7" />
    <edge id="8_forward" from="node_16" to="node_17" numLanes="1" speed="13.89" name="Road 8" />
    <edge id="8_backward" from="node_17" to="node_16" numLanes="1" speed="13.89" name="Road 8" />
    <edge id="9_forward" from="junction_184" to="junction_167" numLanes="1" speed="13.89" name="Road 9" />
    <edge id="9_backward" from="junction_167" to="junction_184" numLanes="1" speed="13.89" name="Road 9" />
    <edge id="10_forward" from="junction_167" to="junction_111" numLanes="1" speed="13.89" name="Road 10" />
    <edge id="10_backward" from="junction_111" to="junction_167" numLanes="1" speed="13.89" name="Road 10" />
    <edge id="11_forward" from="node_0" to="node_17" numLanes="1" speed="13.89" name="Road 11" />
    <edge id="11_backward" from="node_17" to="node_0" numLanes="1" speed="13.89" name="Road 11" />
    <edge id="12_forward" from="junction_128" to="junction_94" numLanes="1" speed="13.89" name="Road 12" />
    <edge id="12_backward" from="junction_94" to="junction_128" numLanes="1" speed="13.89" name="Road 12" />
    <edge id="13_forward" from="node_26" to="node_7" numLanes="1" speed="13.89" name="Road 13" />
    <edge id="13_backward" from="node_7" to="node_26" numLanes="1" speed="13.89" name="Road 13" />
    <edge id="14_forward" from="node_16" to="node_15" numLanes="1" speed="13.89" name="Road 14" />
    <edge id="14_backward" from="node_15" to="node_16" numLanes="1" speed="13.89" name="Road 14" />
    <edge id="15_forward" from="node_26" to="node_31" numLanes="1" speed="13.89" name="Road 15" />
    <edge id="15_backward" from="node_31" to="node_26" numLanes="1" speed="13.89" name="Road 15" />
    <edge id="16_forward" from="junction_43" to="junction_111" numLanes="1" speed="13.89" name="Road 16" />
    <edge id="16_backward" from="junction_111" to="junction_43" numLanes="1" speed="13.89" name="Road 16" />
    <edge id="17_forward" from="junction_111" to="junction_139" numLanes="1" speed="13.89" name="Road 17" />
    <edge id="17_backward" from="junction_139" to="junction_111" numLanes="1" speed="13.89" name="Road 17" />
    <edge id="18_forward" from="junction_139" to="junction_94" numLanes="1" speed="13.89" name="Road 18" />
    <edge id="18_backward" from="junction_94" to="junction_139" numLanes="1" speed="13.89" name="Road 18" />
    <edge id="19_forward" from="junction_94" to="junction_60" numLanes="1" speed="13.89" name="Road 19" />
    <edge id="19_backward" from="junction_60" to="junction_94" numLanes="1" speed="13.89" name="Road 19" />
    <edge id="20_forward" from="node_10" to="node_31" numLanes="1" speed="13.89" name="Road 20" />
    <edge id="20_backward" from="node_31" to="node_10" numLanes="1" speed="13.89" name="Road 20" />
    <edge id="21_forward" from="junction_77" to="junction_184" numLanes="1" speed="13.89" name="Road 21" />
    <edge id="21_backward" from="junction_184" to="junction_77" numLanes="1" speed="13.89" name="Road 21" />
    <edge id="22_forward" from="junction_184" to="junction_156" numLanes="1" speed="13.89" name="Road 22" />
    <edge id="22_backward" from="junction_156" to="junction_184" numLanes="1" speed="13.89" name="Road 22" />
    <edge id="23_forward" from="junction_156" to="junction_128" numLanes="1" speed="13.89" name="Road 23" />
    <edge id="23_backward" from="junction_128" to="junction_156" numLanes="1" speed="13.89" name="Road 23" />
    <edge id="24_forward" from="junction_128" to="junction_195" numLanes="1" speed="13.89" name="Road 24" />
    <edge id="24_backward" from="junction_195" to="junction_128" numLanes="1" speed="13.89" name="Road 24" />
    <edge id="25_forward" from="junction_26" to="junction_167" numLanes="1" speed="13.89" name="Road 25" />
    <edge id="25_backward" from="junction_167" to="junction_26" numLanes="1" speed="13.89" name="Road 25" />
</edges>