<?xml version='1.0' encoding='utf-8'?>
<connections>
    <connection from="1_forward" to="2_forward" fromLane="0" toLane="0" />
    <connection from="1_forward" to="25_forward" fromLane="0" toLane="0" />
    <connection from="2_backward" to="1_backward" fromLane="0" toLane="0" />
    <connection from="2_backward" to="25_forward" fromLane="0" toLane="0" />
    <connection from="25_backward" to="1_backward" fromLane="0" toLane="0" />
    <connection from="25_backward" to="2_forward" fromLane="0" toLane="0" />
    <connection from="0_forward" to="1_forward" fromLane="0" toLane="0" />
    <connection from="0_forward" to="16_forward" fromLane="0" toLane="0" />
    <connection from="1_backward" to="0_backward" fromLane="0" toLane="0" />
    <connection from="1_backward" to="16_forward" fromLane="0" toLane="0" />
    <connection from="16_backward" to="0_backward" fromLane="0" toLane="0" />
    <connection from="16_backward" to="1_forward" fromLane="0" toLane="0" />
    <connection from="6_forward" to="7_forward" fromLane="0" toLane="0" />
    <connection from="6_forward" to="19_backward" fromLane="0" toLane="0" />
    <connection from="7_backward" to="6_backward" fromLane="0" toLane="0" />
    <connection from="7_backward" to="19_backward" fromLane="0" toLane="0" />
    <connection from="19_forward" to="6_backward" fromLane="0" toLane="0" />
    <connection from="19_forward" to="7_forward" fromLane="0" toLane="0" />
    <connection from="2_forward" to="3_forward" fromLane="0" toLane="0" />
    <connection from="2_forward" to="21_forward" fromLane="0" toLane="0" />
    <connection from="3_backward" to="2_backward" fromLane="0" toLane="0" />
    <connection from="3_backward" to="21_forward" fromLane="0" toLane="0" />
    <connection from="21_backward" to="2_backward" fromLane="0" toLane="0" />
    <connection from="21_backward" to="3_forward" fromLane="0" toLane="0" />
    <connection from="12_forward" to="18_backward" fromLane="0" toLane="0" />
    <connection from="12_forward" to="19_forward" fromLane="0" toLane="0" />
    <connection from="18_forward" to="12_backward" fromLane="0" toLane="0" />
    <connection from="18_forward" to="19_forward" fromLane="0" toLane="0" />
    <connection from="19_backward" to="12_backward" fromLane="0" toLane="0" />
    <connection from="19_backward" to="18_backward" fromLane="0" toLane="0" />
    <connection from="10_forward" to="16_backward" fromLane="0" toLane="0" />
    <connection from="10_forward" to="17_forward" fromLane="0" toLane="0" />
    <connection from="16_forward" to="10_backward" fromLane="0" toLane="0" />
    <connection from="16_forward" to="17_forward" fromLane="0" toLane="0" />
    <connection from="17_backward" to="10_backward" fromLane="0" toLane="0" />
    <connection from="17_backward" to="16_backward" fromLane="0" toLane="0" />
    <connection from="12_backward" to="23_backward" fromLane="0" toLane="0" />
    <connection from="12_backward" to="24_forward" fromLane="0" toLane="0" />
    <connection from="23_forward" to="12_forward" fromLane="0" toLane="0" />
    <connection from="23_forward" to="24_forward" fromLane="0" toLane="0" />
    <connection from="24_backward" to="12_forward" fromLane="0" toLane="0" />
    <connection from="24_backward" to="23_backward" fromLane="0" toLane="0" />
    <connection from="4_forward" to="17_backward" fromLane="0" toLane="0" />
    <connection from="4_forward" to="18_forward" fromLane="0" toLane="0" />
    <connection from="17_forward" to="4_backward" fromLane="0" toLane="0" />
    <connection from="17_forward" to="18_forward" fromLane="0" toLane="0" />
    <connection from="18_backward" to="4_backward" fromLane="0" toLane="0" />
    <connection from="18_backward" to="17_backward" fromLane="0" toLane="0" />
    <connection from="4_backward" to="22_backward" fromLane="0" toLane="0" />
    <connection from="4_backward" to="23_forward" fromLane="0" toLane="0" />
    <connection from="22_forward" to="4_forward" fromLane="0" toLane="0" />
    <connection from="22_forward" to="23_forward" fromLane="0" toLane="0" />
    <connection from="23_backward" to="4_forward" fromLane="0" toLane="0" />
    <connection from="23_backward" to="22_backward" fromLane="0" toLane="0" />
    <connection from="9_forward" to="10_forward" fromLane="0" toLane="0" />
    <connection from="9_forward" to="25_backward" fromLane="0" toLane="0" />
    <connection from="10_backward" to="9_backward" fromLane="0" toLane="0" />
    <connection from="10_backward" to="25_backward" fromLane="0" toLane="0" />
    <connection from="25_forward" to="9_backward" fromLane="0" toLane="0" />
    <connection from="25_forward" to="10_forward" fromLane="0" toLane="0" />
    <connection from="9_backward" to="21_backward" fromLane="0" toLane="0" />
    <connection from="9_backward" to="22_forward" fromLane="0" toLane="0" />
    <connection from="21_forward" to="9_forward" fromLane="0" toLane="0" />
    <connection from="21_forward" to="22_forward" fromLane="0" toLane="0" />
    <connection from="22_backward" to="9_forward" fromLane="0" toLane="0" />
    <connection from="22_backward" to="21_backward" fromLane="0" toLane="0" />
    <connection from="5_forward" to="6_forward" fromLane="0" toLane="0" />
    <connection from="5_forward" to="24_backward" fromLane="0" toLane="0" />
    <connection from="6_backward" to="5_backward" fromLane="0" toLane="0" />
    <connection from="6_backward" to="24_backward" fromLane="0" toLane="0" />
    <connection from="24_forward" to="5_backward" fromLane="0" toLane="0" />
    <connection from="24_forward" to="6_forward" fromLane="0" toLane="0" />
</connections>