<?xml version='1.0' encoding='utf-8'?>
<connections>
    <connection from="336.0" to="merge_zone_22" fromLane="1" toLane="2" />
    <connection from="336.0" to="merge_zone_22" fromLane="0" toLane="1" />
    <connection from="merge_zone_22" to="320.0" fromLane="2" toLane="2" />
    <connection from="merge_zone_22" to="320.0" fromLane="1" toLane="1" />
    <connection from="339.0" to="merge_zone_22" fromLane="0" toLane="0" />
    <connection from="merge_zone_22" to="320.0" fromLane="0" toLane="2" dir="r" state="m" />
    <connection from="310.0" to="314.0" fromLane="2" toLane="1" />
    <connection from="310.0" to="314.0" fromLane="1" toLane="0" />
    <connection from="310.0" to="313.0" fromLane="1" toLane="0" />
</connections>