<?xml version="1.0" encoding="UTF-8"?>

<!-- generated on 2025-10-19 17:35:16 by Eclipse SUMO netconvert Version 1.23.1
<netconvertConfiguration xmlns:xsi="http://www.w3.org/2001/XMLSchema-instance" xsi:noNamespaceSchemaLocation="http://sumo.dlr.de/xsd/netconvertConfiguration.xsd">

    <input>
        <node-files value="/home/sdai/harry/TeraSim/jupiter/eb/jupiter_eb_tiles/tile_0037/tile_0037.nod.xml"/>
        <edge-files value="/home/sdai/harry/TeraSim/jupiter/eb/jupiter_eb_tiles/tile_0037/tile_0037.edg.xml"/>
        <connection-files value="/home/sdai/harry/TeraSim/jupiter/eb/jupiter_eb_tiles/tile_0037/tile_0037.con.xml"/>
    </input>

    <output>
        <output-file value="/home/sdai/harry/TeraSim/jupiter/eb/jupiter_eb_tiles/tile_0037/tile_0037.net.xml"/>
        <output.street-names value="true"/>
        <output.original-names value="true"/>
    </output>

    <processing>
        <geometry.remove value="false"/>
        <geometry.min-dist value="0.5"/>
        <edges.join value="false"/>
    </processing>

    <junctions>
        <no-internal-links value="false"/>
        <no-turnarounds value="true"/>
        <junctions.join value="true"/>
        <junctions.join-dist value="10"/>
        <junctions.corner-detail value="5"/>
        <junctions.internal-link-detail value="5"/>
        <junctions.limit-turn-speed value="5.5"/>
        <rectangular-lane-cut value="true"/>
        <check-lane-foes.all value="true"/>
    </junctions>

</netconvertConfiguration>
-->

<net version="1.20" junctionCornerDetail="5" junctionLinkDetail="5" rectangularLaneCut="true" limitTurnSpeed="5.50" checkLaneFoesAll="1" xmlns:xsi="http://www.w3.org/2001/XMLSchema-instance" xsi:noNamespaceSchemaLocation="http://sumo.dlr.de/xsd/net_file.xsd">

    <location netOffset="-619804.87,-3278129.44" convBoundary="0.00,0.00,9245.20,2807.91" origBoundary="0.00,0.00,629050.07,3280937.35" projParameter="!"/>

    <edge id=":j_merge_end_22_0" function="internal">
        <lane id=":j_merge_end_22_0_0" index="0" speed="13.89" length="2.64" width="3.66" shape="7085.73,2270.14 7083.77,2277.19"/>
        <lane id=":j_merge_end_22_0_1" index="1" speed="13.89" length="2.64" width="3.66" shape="7084.61,2273.62 7084.89,2273.71"/>
        <lane id=":j_merge_end_22_0_2" index="2" speed="13.89" length="2.64" width="3.66" shape="7083.48,2277.10 7083.77,2277.19"/>
    </edge>
    <edge id=":j_merge_start_22_0" function="internal">
        <lane id=":j_merge_start_22_0_0" index="0" speed="13.89" length="74.86" width="3.66" shape="6921.18,2217.00 6992.42,2240.00"/>
    </edge>
    <edge id=":j_merge_start_22_1" function="internal">
        <lane id=":j_merge_start_22_1_0" index="0" speed="13.89" length="74.82" width="3.66" shape="6920.06,2220.61 6991.29,2243.48"/>
        <lane id=":j_merge_start_22_1_1" index="1" speed="13.89" length="74.82" width="3.66" shape="6918.93,2224.09 6990.17,2246.97"/>
    </edge>
    <edge id=":junction_78_0" function="internal">
        <lane id=":junction_78_0_0" index="0" speed="13.89" length="93.49" width="3.66" shape="5790.36,1856.52 5809.76,1862.22 5838.92,1870.31 5866.33,1877.73 5880.46,1881.42"/>
    </edge>
    <edge id=":junction_78_1" function="internal">
        <lane id=":junction_78_1_0" index="0" speed="13.89" length="93.61" width="3.66" shape="5790.36,1856.52 5879.41,1885.31"/>
        <lane id=":junction_78_1_1" index="1" speed="13.89" length="93.61" width="3.66" shape="5789.22,1860.00 5878.30,1888.79"/>
    </edge>
    <edge id=":node_281_end_0" function="internal">
        <lane id=":node_281_end_0_0" index="0" speed="13.89" length="3.25" width="3.66" shape="498.25,162.65 501.37,163.57"/>
    </edge>
    <edge id=":node_281_end_1" function="internal">
        <lane id=":node_281_end_1_0" index="0" speed="13.89" length="3.01" width="3.66" shape="497.07,166.12 499.92,167.08"/>
        <lane id=":node_281_end_1_1" index="1" speed="13.89" length="3.01" width="3.66" shape="495.90,169.58 498.76,170.55"/>
    </edge>
    <edge id=":node_281_start_0" function="internal">
        <lane id=":node_281_start_0_0" index="0" speed="13.89" length="3.00" width="3.66" shape="83.33,19.17 86.16,20.15"/>
        <lane id=":node_281_start_0_1" index="1" speed="13.89" length="3.00" width="3.66" shape="82.12,22.62 84.96,23.61"/>
        <lane id=":node_281_start_0_2" index="2" speed="13.89" length="3.00" width="3.66" shape="80.92,26.08 83.75,27.07"/>
    </edge>
    <edge id=":node_306_end_0" function="internal">
        <lane id=":node_306_end_0_0" index="0" speed="13.89" length="0.30" width="3.66" shape="2061.49,655.16 2061.78,655.25"/>
        <lane id=":node_306_end_0_1" index="1" speed="13.89" length="0.30" width="3.66" shape="2060.37,658.64 2060.65,658.73"/>
    </edge>
    <edge id=":node_306_start_0" function="internal">
        <lane id=":node_306_start_0_0" index="0" speed="13.89" length="0.30" width="3.66" shape="1947.38,618.33 1947.67,618.42"/>
        <lane id=":node_306_start_0_1" index="1" speed="13.89" length="0.30" width="3.66" shape="1946.26,621.81 1946.54,621.90"/>
    </edge>
    <edge id=":node_307_end_0" function="internal">
        <lane id=":node_307_end_0_0" index="0" speed="13.89" length="0.30" width="3.66" shape="3750.61,1199.59 3750.88,1199.68"/>
        <lane id=":node_307_end_0_1" index="1" speed="13.89" length="0.30" width="3.66" shape="3749.48,1203.07 3749.77,1203.16"/>
    </edge>
    <edge id=":node_308_start_0" function="internal">
        <lane id=":node_308_start_0_0" index="0" speed="13.89" length="8.11" width="3.66" shape="577.02,191.22 584.71,193.79"/>
    </edge>
    <edge id=":node_308_start_1" function="internal">
        <lane id=":node_308_start_1_0" index="0" speed="13.89" length="8.00" width="3.66" shape="577.06,191.47 584.71,193.79"/>
        <lane id=":node_308_start_1_1" index="1" speed="13.89" length="8.00" width="3.66" shape="576.00,194.97 583.65,197.29"/>
    </edge>
    <edge id=":node_310_start_0" function="internal">
        <lane id=":node_310_start_0_0" index="0" speed="13.89" length="0.30" width="3.66" shape="3869.50,1237.89 3869.77,1237.98"/>
        <lane id=":node_310_start_0_1" index="1" speed="13.89" length="0.30" width="3.66" shape="3868.37,1241.37 3868.66,1241.47"/>
    </edge>
    <edge id=":node_314_end_0" function="internal">
        <lane id=":node_314_end_0_0" index="0" speed="13.89" length="3.00" width="3.66" shape="5969.90,1914.46 5972.74,1915.37"/>
        <lane id=":node_314_end_0_1" index="1" speed="13.89" length="3.00" width="3.66" shape="5968.77,1917.94 5971.64,1918.86"/>
    </edge>
    <edge id=":node_315_end_0" function="internal">
        <lane id=":node_315_end_0_0" index="0" speed="13.89" length="3.00" width="3.66" shape="6724.09,2157.48 6726.95,2158.40"/>
        <lane id=":node_315_end_0_1" index="1" speed="13.89" length="3.00" width="3.66" shape="6722.97,2160.97 6725.83,2161.89"/>
    </edge>
    <edge id=":node_320_end_0" function="internal">
        <lane id=":node_320_end_0_0" index="0" speed="13.89" length="0.30" width="3.66" shape="7664.40,2460.49 7664.69,2460.58"/>
        <lane id=":node_320_end_0_1" index="1" speed="13.89" length="0.30" width="3.66" shape="7663.27,2463.97 7663.56,2464.06"/>
    </edge>
    <edge id=":node_330_end_0" function="internal">
        <lane id=":node_330_end_0_0" index="0" speed="13.89" length="0.30" width="3.66" shape="7785.67,2499.73 7785.95,2499.82"/>
        <lane id=":node_330_end_0_1" index="1" speed="13.89" length="0.30" width="3.66" shape="7784.54,2503.21 7784.83,2503.30"/>
    </edge>

    <edge id="275.0" from="junction_20" to="node_281_start" priority="-1" type="town" shape="0.00,0.00 8.14,2.80 19.96,6.92 29.45,10.18 39.53,13.68 46.27,16.02 61.06,21.12 70.13,24.26 81.73,28.30">
        <lane id="275.0_0" index="0" disallow="all" speed="13.89" length="85.02" width="3.66" shape="4.17,-12.11 12.34,-9.30 24.15,-5.18 33.63,-1.93 43.73,1.58 50.46,3.91 65.24,9.01 74.34,12.16 84.53,15.71" type="shoulder"/>
        <lane id="275.0_1" index="1" speed="13.89" length="85.02" width="3.66" shape="2.98,-8.65 11.14,-5.85 22.96,-1.73 32.44,1.53 42.53,5.04 49.26,7.37 64.05,12.47 73.13,15.62 83.33,19.17"/>
        <lane id="275.0_2" index="2" speed="13.89" length="85.02" width="3.66" shape="1.79,-5.19 9.94,-2.39 21.76,1.73 31.24,4.99 41.33,8.49 48.07,10.83 62.85,15.93 71.93,19.07 82.12,22.62"/>
        <lane id="275.0_3" index="3" speed="13.89" length="85.02" width="3.66" shape="0.60,-1.73 8.74,1.07 20.56,5.19 30.05,8.45 40.13,11.95 46.87,14.29 61.66,19.39 70.73,22.53 80.92,26.08"/>
    </edge>
    <edge id="281.0" from="node_281_start" to="node_281_end" priority="-1" type="town" shape="81.73,28.30 88.64,30.71 97.95,33.90 110.44,38.23 121.40,42.02 143.75,49.81 163.14,56.47 206.69,71.65 268.01,92.81 291.18,100.81 313.14,108.43 344.14,119.19 390.10,135.06 439.02,152.03 469.48,162.53 496.70,171.79">
        <lane id="281.0_0" index="0" speed="13.89" length="436.06" width="3.66" shape="86.16,20.15 91.63,22.06 100.94,25.25 113.44,29.58 124.41,33.38 146.75,41.16 166.13,47.82 209.69,63.01 271.00,84.16 294.17,92.16 316.14,99.79 347.13,110.54 393.10,126.41 442.01,143.38 472.45,153.87 498.25,162.65"/>
        <lane id="281.0_1" index="1" speed="13.89" length="436.06" width="3.66" shape="84.96,23.61 90.43,25.52 99.74,28.71 112.24,33.04 123.20,36.83 145.55,44.62 164.94,51.28 208.49,66.46 269.80,87.62 292.98,95.62 314.94,103.24 345.94,114.00 391.90,129.87 440.82,146.84 471.26,157.34 497.07,166.12"/>
        <lane id="281.0_2" index="2" speed="13.89" length="436.06" width="3.66" shape="83.75,27.07 89.24,28.98 98.55,32.17 111.04,36.50 122.00,40.29 144.35,48.08 163.74,54.74 207.29,69.92 268.61,91.08 291.78,99.08 313.74,106.70 344.74,117.46 390.70,133.33 439.62,150.30 470.08,160.80 495.90,169.58"/>
    </edge>
    <edge id="306.0" from="node_306_start" to="node_306_end" priority="-1" type="town" shape="1945.84,623.60 1961.59,628.69 1981.61,635.13 2013.25,645.39 2040.45,654.15 2059.94,660.43">
        <lane id="306.0_0" index="0" disallow="all" speed="13.89" length="119.60" width="3.66" shape="1948.80,614.94 1964.40,619.98 1984.43,626.42 2016.07,636.68 2043.26,645.44 2062.61,651.68" type="shoulder"/>
        <lane id="306.0_1" index="1" speed="13.89" length="119.60" width="3.66" shape="1947.67,618.42 1963.28,623.46 1983.30,629.91 2014.94,640.17 2042.14,648.92 2061.49,655.16"/>
        <lane id="306.0_2" index="2" speed="13.89" length="119.60" width="3.66" shape="1946.54,621.90 1962.15,626.95 1982.18,633.39 2013.82,643.65 2041.01,652.41 2060.37,658.64"/>
    </edge>
    <edge id="307.0" from="node_306_end" to="node_307_end" priority="-1" type="town" shape="2059.94,660.43 2072.25,664.44 2088.07,669.58 2113.66,677.82 2149.35,689.31 2176.51,698.04 2206.88,707.86 2236.39,717.34 2265.97,726.85 2299.47,737.63 2331.75,748.08 2379.56,763.50 2427.49,778.95 2473.31,793.75 2506.68,804.50 2529.79,811.95 2576.61,827.08 2604.73,836.09 2643.08,848.44 2685.55,862.11 2713.71,871.21 2749.08,882.63 2783.11,893.60 2817.48,904.67 2845.79,913.77 2872.69,922.36 2890.95,928.25 2913.34,935.46 2940.88,944.38 2974.69,955.31 3014.58,968.12 3043.39,977.47 3090.87,992.76 3124.67,1003.70 3151.59,1012.39 3183.52,1022.68 3215.62,1033.03 3247.41,1043.29 3284.80,1055.30 3318.94,1066.33 3360.78,1079.83 3410.20,1095.77 3461.38,1112.18 3530.44,1134.45 3591.43,1154.08 3643.87,1170.93 3682.35,1183.31 3716.30,1194.24 3749.06,1204.86">
        <lane id="307.0_0" index="0" disallow="all" speed="13.89" length="1774.38" width="3.66" shape="2062.91,651.77 2075.08,655.74 2090.89,660.87 2116.47,669.11 2152.15,680.60 2179.32,689.33 2209.69,699.15 2239.19,708.63 2268.77,718.14 2302.28,728.92 2334.56,739.37 2382.37,754.79 2430.30,770.24 2476.12,785.04 2509.49,795.79 2532.60,803.24 2579.42,818.37 2607.53,827.38 2645.89,839.73 2688.36,853.40 2716.52,862.50 2751.89,873.92 2785.92,884.89 2820.29,895.96 2848.58,905.06 2875.49,913.65 2893.76,919.54 2916.16,926.75 2943.70,935.67 2977.50,946.60 3017.39,959.41 3046.21,968.76 3093.68,984.05 3127.49,994.99 3154.40,1003.68 3186.33,1013.97 3218.43,1024.32 3250.22,1034.58 3287.61,1046.59 3321.75,1057.62 3363.59,1071.12 3413.00,1087.06 3464.18,1103.47 3533.25,1125.74 3594.23,1145.37 3646.67,1162.22 3685.16,1174.60 3719.11,1185.53 3751.73,1196.11" type="shoulder"/>
        <lane id="307.0_1" index="1" speed="13.89" length="1774.38" width="3.66" shape="2061.78,655.25 2073.95,659.22 2089.76,664.36 2115.34,672.59 2151.03,684.08 2178.20,692.81 2208.57,702.63 2238.07,712.11 2267.65,721.62 2301.16,732.41 2333.44,742.86 2381.25,758.27 2429.18,773.73 2475.00,788.53 2508.37,799.27 2531.48,806.73 2578.30,821.85 2606.41,830.86 2644.76,843.21 2687.24,856.88 2715.40,865.99 2750.77,877.41 2784.80,888.37 2819.16,899.44 2847.47,908.54 2874.37,917.13 2892.64,923.02 2915.03,930.24 2942.57,939.16 2976.38,950.08 3016.27,962.90 3045.08,972.25 3092.56,987.54 3126.36,998.48 3153.28,1007.17 3185.21,1017.45 3217.31,1027.81 3249.09,1038.06 3286.49,1050.07 3320.63,1061.11 3362.47,1074.61 3411.88,1090.54 3463.06,1106.95 3532.13,1129.22 3593.11,1148.85 3645.55,1165.70 3684.03,1178.08 3717.99,1189.02 3750.61,1199.59"/>
        <lane id="307.0_2" index="2" speed="13.89" length="1774.38" width="3.66" shape="2060.65,658.73 2072.82,662.70 2088.63,667.84 2114.22,676.08 2149.91,687.57 2177.07,696.30 2207.44,706.12 2236.95,715.60 2266.53,725.11 2300.03,735.89 2332.31,746.34 2380.12,761.76 2428.05,777.21 2473.87,792.01 2507.24,802.76 2530.35,810.21 2577.17,825.34 2605.29,834.35 2643.64,846.70 2686.11,860.37 2714.27,869.47 2749.64,880.89 2783.67,891.86 2818.04,902.93 2846.35,912.03 2873.25,920.62 2891.51,926.51 2913.90,933.72 2941.45,942.64 2975.25,953.57 3015.14,966.38 3043.96,975.73 3091.43,991.02 3125.24,1001.96 3152.15,1010.65 3184.08,1020.94 3216.18,1031.29 3247.97,1041.55 3285.36,1053.56 3319.50,1064.59 3361.34,1078.09 3410.76,1094.03 3461.94,1110.44 3531.00,1132.71 3591.99,1152.34 3644.43,1169.19 3682.91,1181.57 3716.86,1192.50 3749.48,1203.07"/>
    </edge>
    <edge id="308.0" from="node_308_start" to="node_306_start" priority="-1" type="town" shape="579.33,197.89 594.81,202.59 601.68,204.57 624.09,211.16 639.53,215.66 659.05,221.30 682.07,227.91 707.09,235.12 733.87,242.86 764.69,251.79 781.97,256.77 808.65,264.49 848.45,275.99 867.62,281.61 882.25,285.93 900.14,291.15 922.24,297.67 939.68,302.77 961.08,309.09 997.23,319.82 1032.22,330.32 1066.04,340.78 1108.31,354.13 1163.01,371.49 1224.64,391.25 1273.05,406.88 1324.05,423.33 1375.29,439.85 1401.50,448.24 1432.41,458.29 1482.67,474.43 1537.01,492.00 1580.51,505.99 1621.92,519.37 1672.51,535.65 1695.98,543.21 1733.18,555.15 1775.09,568.60 1825.79,584.91 1897.53,608.08 1945.84,623.60">
        <lane id="308.0_0" index="0" disallow="all" speed="13.89" length="1427.38" width="3.66" shape="585.78,190.28 597.41,193.82 604.24,195.78 626.67,202.38 642.08,206.87 661.58,212.51 684.60,219.12 709.63,226.33 736.42,234.07 767.23,243.00 784.51,247.98 811.19,255.70 851.00,267.20 870.20,272.83 884.83,277.15 902.72,282.37 924.82,288.89 942.26,293.99 963.68,300.32 999.85,311.05 1034.89,321.57 1068.77,332.05 1111.07,345.41 1165.79,362.77 1227.44,382.54 1275.86,398.17 1326.86,414.62 1378.09,431.14 1404.31,439.53 1435.23,449.58 1485.48,465.72 1539.82,483.29 1583.32,497.28 1624.73,510.66 1675.32,526.94 1698.78,534.50 1735.98,546.44 1777.89,559.89 1828.60,576.20 1900.34,599.37 1948.50,614.84" type="shoulder"/>
        <lane id="308.0_1" index="1" speed="13.89" length="1427.38" width="3.66" shape="584.71,193.79 596.37,197.33 603.22,199.30 625.64,205.89 641.06,210.39 660.57,216.02 683.59,222.63 708.61,229.85 735.40,237.59 766.22,246.52 783.50,251.50 810.18,259.22 849.98,270.72 869.17,276.34 883.80,280.66 901.69,285.88 923.79,292.40 941.23,297.50 962.64,303.83 998.80,314.56 1033.82,325.07 1067.68,335.54 1109.97,348.90 1164.68,366.26 1226.32,386.02 1274.74,401.66 1325.74,418.10 1376.97,434.62 1403.19,443.02 1434.10,453.07 1484.36,469.20 1538.70,486.78 1582.20,500.76 1623.61,514.14 1674.19,530.42 1697.66,537.98 1734.86,549.92 1776.77,563.37 1827.48,579.68 1899.22,602.85 1947.38,618.33"/>
        <lane id="308.0_2" index="2" speed="13.89" length="1427.38" width="3.66" shape="583.65,197.29 595.33,200.84 602.19,202.81 624.61,209.40 640.04,213.90 659.56,219.54 682.58,226.15 707.60,233.36 734.38,241.10 765.20,250.03 782.48,255.01 809.16,262.73 848.96,274.23 868.14,279.85 882.77,284.17 900.66,289.39 922.76,295.91 940.20,301.01 961.60,307.34 997.76,318.07 1032.76,328.57 1066.59,339.03 1108.86,352.39 1163.57,369.75 1225.20,389.51 1273.61,405.14 1324.61,421.59 1375.85,438.11 1402.06,446.50 1432.97,456.55 1483.23,472.69 1537.57,490.26 1581.07,504.25 1622.48,517.63 1673.07,533.91 1696.54,541.47 1733.74,553.41 1775.65,566.86 1826.35,583.17 1898.09,606.34 1946.26,621.81"/>
    </edge>
    <edge id="310.0" from="node_310_start" to="junction_78" priority="-1" type="town" shape="3867.95,1243.16 3878.25,1246.44 3909.83,1256.57 3955.06,1271.17 4002.31,1286.37 4069.85,1308.15 4110.45,1321.24 4148.43,1333.46 4197.05,1349.14 4261.66,1369.78 4328.09,1391.12 4423.07,1421.73 4515.34,1451.43 4568.27,1468.51 4634.74,1489.97 4708.16,1513.57 4815.95,1548.31 4876.62,1567.79 4933.31,1586.01 4992.20,1604.95 5021.18,1614.33 5070.28,1630.18 5141.31,1653.10 5189.76,1668.79 5258.64,1690.89 5335.74,1715.74 5400.58,1736.63 5435.76,1748.01 5497.45,1767.93 5566.62,1790.20 5598.31,1800.42 5664.38,1821.66 5710.60,1836.58 5729.90,1842.79 5752.66,1850.13 5785.80,1860.81 5788.65,1861.74">
        <lane id="310.0_0" index="0" disallow="all" speed="13.89" length="2017.73" width="3.66" shape="3870.88,1234.49 3881.04,1237.73 3912.64,1247.86 3957.87,1262.46 4005.12,1277.66 4072.66,1299.44 4113.26,1312.53 4151.24,1324.75 4199.85,1340.43 4264.45,1361.07 4330.90,1382.41 4425.88,1413.02 4518.15,1442.72 4571.08,1459.80 4637.55,1481.26 4710.97,1504.86 4818.76,1539.60 4879.42,1559.08 4936.11,1577.30 4995.01,1596.24 5024.00,1605.62 5073.09,1621.47 5144.13,1644.39 5192.57,1660.08 5261.44,1682.18 5338.55,1707.03 5403.39,1727.92 5438.58,1739.30 5500.26,1759.22 5569.43,1781.49 5601.12,1791.71 5667.19,1812.95 5713.41,1827.87 5732.71,1834.08 5755.47,1841.42 5788.61,1852.10 5791.49,1853.04" type="shoulder"/>
        <lane id="310.0_1" index="1" speed="13.89" length="2017.73" width="3.66" shape="3869.77,1237.98 3879.93,1241.21 3911.51,1251.34 3956.75,1265.94 4004.00,1281.14 4071.54,1302.92 4112.14,1316.01 4150.12,1328.23 4198.73,1343.91 4263.34,1364.55 4329.77,1385.89 4424.76,1416.50 4517.03,1446.20 4569.96,1463.29 4636.43,1484.74 4709.84,1508.34 4817.63,1543.08 4878.30,1562.56 4934.99,1580.78 4993.89,1599.72 5022.87,1609.11 5071.97,1624.96 5143.00,1647.88 5191.45,1663.56 5260.32,1685.66 5337.43,1710.51 5402.27,1731.41 5437.45,1742.79 5499.14,1762.70 5568.31,1784.97 5599.99,1795.19 5666.07,1816.43 5712.29,1831.35 5731.59,1837.56 5754.35,1844.90 5787.49,1855.59 5790.36,1856.52"/>
        <lane id="310.0_2" index="2" speed="13.89" length="2017.73" width="3.66" shape="3868.66,1241.47 3878.81,1244.70 3910.39,1254.83 3955.62,1269.43 4002.87,1284.63 4070.41,1306.41 4111.01,1319.50 4148.99,1331.72 4197.61,1347.40 4262.22,1368.04 4328.65,1389.38 4423.63,1419.99 4515.90,1449.69 4568.83,1466.77 4635.30,1488.23 4708.72,1511.83 4816.51,1546.57 4877.18,1566.05 4933.87,1584.27 4992.76,1603.21 5021.74,1612.59 5070.84,1628.44 5141.87,1651.36 5190.32,1667.05 5259.20,1689.15 5336.30,1714.00 5401.14,1734.89 5436.32,1746.27 5498.01,1766.19 5567.18,1788.46 5598.87,1798.68 5664.94,1819.92 5711.16,1834.84 5730.46,1841.05 5753.22,1848.39 5786.36,1859.07 5789.22,1860.00"/>
    </edge>
    <edge id="311.0" from="node_281_end" to="node_308_start" priority="-1" type="town" shape="496.70,171.79 512.44,177.04 536.80,184.95 556.07,190.88 579.33,197.89">
        <lane id="311.0_0" index="0" speed="13.89" length="80.96" width="3.66" shape="499.92,167.08 514.16,171.83 538.46,179.72 557.67,185.63 577.06,191.47"/>
        <lane id="311.0_1" index="1" speed="13.89" length="80.96" width="3.66" shape="498.76,170.55 513.01,175.30 537.35,183.21 556.61,189.13 576.00,194.97"/>
    </edge>
    <edge id="312.0" from="node_307_end" to="node_310_start" priority="-1" type="town" shape="3749.06,1204.86 3762.70,1209.22 3807.34,1223.60 3834.03,1232.18 3860.39,1240.69 3867.95,1243.16">
        <lane id="312.0_0" index="0" disallow="all" speed="13.89" length="124.62" width="3.66" shape="3752.00,1196.19 3765.50,1200.51 3810.15,1214.89 3836.84,1223.47 3863.21,1231.98 3870.64,1234.41" type="shoulder"/>
        <lane id="312.0_1" index="1" speed="13.89" length="124.62" width="3.66" shape="3750.88,1199.68 3764.38,1203.99 3809.02,1218.37 3835.72,1226.95 3862.08,1235.47 3869.50,1237.89"/>
        <lane id="312.0_2" index="2" speed="13.89" length="124.62" width="3.66" shape="3749.77,1203.16 3763.26,1207.48 3807.90,1221.86 3834.59,1230.44 3860.96,1238.95 3868.37,1241.37"/>
    </edge>
    <edge id="313.0" from="junction_78" to="node_313_end" priority="-1" type="town" shape="5876.35,1882.39 5890.38,1885.49 5906.97,1889.27 5923.41,1893.06 5935.82,1895.92 5954.36,1900.11 5975.17,1904.89 5992.18,1908.77 6014.98,1914.10 6028.48,1917.32 6037.83,1919.42 6040.37,1919.94">
        <lane id="313.0_0" index="0" speed="13.89" length="164.44" width="3.66" shape="5880.46,1881.42 5890.78,1883.70 5907.38,1887.49 5923.82,1891.28 5936.23,1894.14 5954.77,1898.33 5975.58,1903.11 5992.59,1906.99 6015.40,1912.32 6028.90,1915.54 6038.23,1917.63 6040.74,1918.15"/>
    </edge>
    <edge id="314.0" from="junction_78" to="node_314_end" priority="-1" type="town" shape="5873.96,1889.33 5886.42,1893.30 5906.67,1899.82 5930.20,1907.40 5958.86,1916.64 5969.64,1920.15">
        <lane id="314.0_0" index="0" speed="13.89" length="95.06" width="3.66" shape="5879.41,1885.31 5888.10,1888.07 5908.36,1894.59 5931.89,1902.17 5960.55,1911.42 5969.90,1914.46"/>
        <lane id="314.0_1" index="1" speed="13.89" length="95.06" width="3.66" shape="5878.30,1888.79 5886.98,1891.56 5907.23,1898.08 5930.76,1905.66 5959.43,1914.90 5968.77,1917.94"/>
    </edge>
    <edge id="315.0" from="node_314_end" to="node_315_end" priority="-1" type="town" shape="5969.64,1920.15 5975.01,1921.85 5988.40,1926.16 6003.82,1931.14 6024.10,1937.69 6054.33,1947.47 6074.35,1953.94 6090.54,1959.15 6107.17,1964.49 6128.76,1971.40 6158.89,1981.09 6189.49,1990.99 6216.43,1999.68 6233.99,2005.35 6252.84,2011.40 6271.39,2017.38 6296.07,2025.29 6332.80,2037.09 6374.49,2050.49 6426.16,2067.25 6483.53,2085.74 6491.73,2088.44 6504.62,2092.55 6515.45,2096.04 6526.03,2099.45 6570.95,2113.88 6584.51,2118.24 6593.89,2121.28 6605.32,2124.97 6617.09,2128.72 6630.89,2133.18 6640.47,2136.27 6656.55,2141.44 6699.82,2155.47 6723.84,2163.17">
        <lane id="315.0_0" index="0" disallow="all" speed="13.89" length="789.39" width="3.66" shape="5973.85,1911.88 5977.80,1913.14 5991.21,1917.45 6006.63,1922.43 6026.92,1928.98 6057.15,1938.76 6077.16,1945.23 6093.34,1950.44 6109.96,1955.78 6131.56,1962.69 6161.70,1972.38 6192.31,1982.28 6219.24,1990.97 6236.80,1996.64 6255.64,2002.69 6274.19,2008.67 6298.87,2016.58 6335.60,2028.38 6377.30,2041.78 6428.98,2058.54 6486.35,2077.03 6494.55,2079.74 6507.41,2083.84 6518.26,2087.33 6528.83,2090.74 6573.75,2105.17 6587.32,2109.53 6596.71,2112.57 6608.12,2116.26 6619.89,2120.01 6633.70,2124.47 6643.28,2127.56 6659.36,2132.73 6702.63,2146.76 6725.21,2154.00" type="shoulder"/>
        <lane id="315.0_1" index="1" speed="13.89" length="789.39" width="3.66" shape="5972.74,1915.37 5976.69,1916.62 5990.09,1920.93 6005.51,1925.92 6025.79,1932.47 6056.02,1942.25 6076.04,1948.72 6092.22,1953.92 6108.85,1959.26 6130.44,1966.17 6160.58,1975.87 6191.18,1985.77 6218.12,1994.46 6235.67,2000.12 6254.52,2006.17 6273.07,2012.15 6297.75,2020.06 6334.48,2031.86 6376.18,2045.27 6427.85,2062.03 6485.22,2080.52 6493.42,2083.22 6506.30,2087.32 6517.14,2090.81 6527.71,2094.22 6572.63,2108.65 6586.20,2113.02 6595.58,2116.06 6607.00,2119.74 6618.77,2123.49 6632.58,2127.96 6642.15,2131.04 6658.24,2136.22 6701.51,2150.25 6724.09,2157.48"/>
        <lane id="315.0_2" index="2" speed="13.89" length="789.39" width="3.66" shape="5971.64,1918.86 5975.57,1920.11 5988.96,1924.42 6004.38,1929.40 6024.67,1935.95 6054.90,1945.73 6074.91,1952.20 6091.10,1957.41 6107.73,1962.75 6129.32,1969.66 6159.45,1979.35 6190.05,1989.25 6216.99,1997.94 6234.55,2003.61 6253.40,2009.66 6271.95,2015.64 6296.63,2023.55 6333.36,2035.35 6375.05,2048.75 6426.73,2065.51 6484.09,2084.00 6492.30,2086.70 6505.18,2090.81 6516.01,2094.30 6526.59,2097.71 6571.51,2112.14 6585.07,2116.50 6594.46,2119.54 6605.88,2123.23 6617.65,2126.98 6631.45,2131.44 6641.03,2134.53 6657.11,2139.70 6700.38,2153.73 6722.97,2160.97"/>
    </edge>
    <edge id="317.0" from="node_281_end" to="node_308_start" priority="-1" type="town" shape="499.19,164.72 580.32,194.37">
        <lane id="317.0_0" index="0" speed="13.89" length="80.55" width="3.66" shape="501.37,163.57 577.02,191.22"/>
    </edge>
    <edge id="320.0" from="j_merge_end_22" to="node_320_end" priority="-1" type="town" shape="7083.06,2278.89 7238.30,2328.96 7264.28,2337.38 7322.97,2356.20 7345.67,2363.52 7387.77,2377.03 7408.33,2383.67 7445.95,2395.73 7479.22,2406.44 7493.19,2410.88 7560.00,2432.57 7600.77,2445.67 7635.01,2456.75 7656.26,2463.63 7662.85,2465.76">
        <lane id="320.0_0" index="0" disallow="all" speed="13.89" length="608.86" width="3.66" shape="7086.02,2270.23 7241.11,2320.25 7267.09,2328.67 7325.77,2347.49 7348.47,2354.81 7390.57,2368.32 7411.13,2374.96 7448.75,2387.02 7482.02,2397.73 7495.99,2402.17 7562.81,2423.86 7603.58,2436.96 7637.83,2448.04 7659.08,2454.92 7665.52,2457.01" type="shoulder"/>
        <lane id="320.0_1" index="1" speed="13.89" length="608.86" width="3.66" shape="7084.89,2273.71 7239.99,2323.74 7265.97,2332.15 7324.65,2350.97 7347.35,2358.29 7389.45,2371.80 7410.01,2378.44 7447.63,2390.50 7480.90,2401.21 7494.87,2405.65 7561.69,2427.35 7602.46,2440.44 7636.70,2451.53 7657.95,2458.41 7664.40,2460.49"/>
        <lane id="320.0_2" index="2" speed="13.89" length="608.86" width="3.66" shape="7083.77,2277.19 7238.86,2327.22 7264.84,2335.64 7323.53,2354.46 7346.23,2361.78 7388.33,2375.29 7408.89,2381.93 7446.51,2393.99 7479.78,2404.70 7493.75,2409.14 7560.56,2430.83 7601.33,2443.93 7635.58,2455.01 7656.83,2461.89 7663.27,2463.97"/>
    </edge>
    <edge id="330.0" from="node_320_end" to="node_330_end" priority="-1" type="town" shape="7662.85,2465.76 7684.22,2472.68 7713.07,2482.01 7762.68,2498.07 7784.12,2505.00">
        <lane id="330.0_0" index="0" disallow="all" speed="13.89" length="127.16" width="3.66" shape="7665.81,2457.10 7687.04,2463.97 7715.89,2473.30 7765.50,2489.36 7786.79,2496.25" type="shoulder"/>
        <lane id="330.0_1" index="1" speed="13.89" length="127.16" width="3.66" shape="7664.69,2460.58 7685.91,2467.46 7714.76,2476.79 7764.37,2492.85 7785.67,2499.73"/>
        <lane id="330.0_2" index="2" speed="13.89" length="127.16" width="3.66" shape="7663.56,2464.06 7684.79,2470.94 7713.64,2480.27 7763.25,2496.33 7784.54,2503.21"/>
    </edge>
    <edge id="333.0" from="node_330_end" to="junction_79" priority="-1" type="town" shape="7784.12,2505.00 7794.23,2508.27 7813.74,2514.58 7834.11,2521.10 7861.41,2529.96 7914.80,2547.08 7947.62,2557.70 7973.51,2566.10 7982.99,2569.10 7996.19,2573.36 8010.40,2577.93 8025.07,2582.59 8040.53,2587.59 8058.08,2593.21 8075.87,2598.97 8088.76,2603.13 8109.69,2609.91 8129.84,2616.40 8146.42,2621.74 8169.60,2629.27 8193.87,2637.12 8217.22,2644.63 8238.31,2651.43 8258.56,2657.95 8278.84,2664.52 8297.55,2670.57 8316.67,2676.74 8341.04,2684.62 8362.80,2691.66 8387.69,2699.68 8415.43,2708.59 8439.55,2716.24 8489.14,2731.88 8508.85,2737.92 8533.24,2744.90 8557.10,2751.33 8568.70,2754.41 8587.66,2759.10 8611.42,2764.71 8630.08,2768.93 8652.52,2773.67 8675.01,2778.04 8688.04,2780.44 8704.92,2783.41 8729.70,2787.33 8752.07,2790.70 8780.78,2794.51 8801.00,2796.94 8825.24,2799.49 8851.00,2801.90 8878.28,2803.84 8906.05,2805.49 8932.58,2806.69 8966.53,2807.70 8984.02,2807.88 8998.91,2807.91 9018.89,2807.71 9036.37,2807.42 9056.15,2806.80 9075.92,2805.85 9098.40,2804.65 9115.06,2803.62 9137.07,2802.18 9156.34,2800.91 9178.38,2799.31 9202.17,2797.59 9226.44,2795.85 9245.20,2794.49">
        <lane id="333.0_0" index="0" disallow="all" speed="13.89" length="1502.44" width="3.66" shape="7787.08,2496.34 7797.05,2499.56 7816.54,2505.87 7836.92,2512.39 7864.22,2521.25 7917.60,2538.37 7950.44,2549.00 7976.32,2557.39 7985.78,2560.39 7999.00,2564.65 8013.19,2569.21 8027.87,2573.88 8043.33,2578.88 8060.89,2584.50 8078.69,2590.26 8091.58,2594.42 8112.50,2601.20 8132.65,2607.69 8149.24,2613.03 8172.42,2620.57 8196.68,2628.41 8220.03,2635.92 8241.12,2642.72 8261.37,2649.24 8281.66,2655.81 8300.36,2661.86 8319.49,2668.03 8343.86,2675.91 8365.61,2682.95 8390.49,2690.97 8418.22,2699.87 8442.31,2707.52 8491.86,2723.14 8511.45,2729.15 8535.69,2736.08 8559.47,2742.49 8570.98,2745.55 8589.81,2750.21 8613.48,2755.79 8632.04,2759.99 8654.34,2764.70 8676.71,2769.05 8689.66,2771.43 8706.43,2774.38 8731.10,2778.29 8753.36,2781.64 8781.93,2785.43 8802.03,2787.85 8826.15,2790.38 8851.75,2792.78 8878.88,2794.71 8906.53,2796.35 8932.93,2797.55 8966.72,2798.55 8984.08,2798.73 8998.88,2798.76 9018.77,2798.56 9036.15,2798.27 9055.79,2797.66 9075.46,2796.71 9097.88,2795.52 9114.48,2794.49 9136.47,2793.05 9155.71,2791.78 9177.72,2790.18 9201.52,2788.46 9225.78,2786.72 9244.54,2785.36" type="shoulder"/>