<?xml version='1.0' encoding='utf-8'?>
<edges>
    <edge id="281.0" from="node_281_start" to="node_281_end" numLanes="3" speed="13.89" type="town" shape="619886.60,3278157.74 619893.51,3278160.15 619893.51,3278160.15 619902.82,3278163.34 619902.82,3278163.34 619915.31,3278167.67 619915.31,3278167.67 619926.27,3278171.46 619926.27,3278171.46 619948.62,3278179.25 619948.62,3278179.25 619968.01,3278185.91 619968.01,3278185.91 620011.56,3278201.09 620011.56,3278201.09 620072.88,3278222.25 620072.88,3278222.25 620096.05,3278230.25 620096.05,3278230.25 620118.01,3278237.87 620118.01,3278237.87 620149.01,3278248.63 620149.01,3278248.63 620194.97,3278264.50 620194.97,3278264.50 620243.89,3278281.47 620243.89,3278281.47 620274.35,3278291.97 620274.35,3278291.97 620301.57,3278301.23">
        <lane index="0" width="3.66" />
        <lane index="1" width="3.66" />
        <lane index="2" width="3.66" />
    </edge>
    <edge id="306.0" from="node_306_start" to="node_306_end" numLanes="3" speed="13.89" type="town" shape="621750.71,3278753.04 621766.46,3278758.13 621766.46,3278758.13 621786.48,3278764.57 621786.48,3278764.57 621818.12,3278774.83 621818.12,3278774.83 621845.32,3278783.59 621845.32,3278783.59 621864.81,3278789.87">
        <lane index="0" width="3.66" type="shoulder" disallow="all" />
        <lane index="1" width="3.66" />
        <lane index="2" width="3.66" />
    </edge>
    <edge id="307.0" from="node_306_end" to="node_307_end" numLanes="3" speed="13.89" type="town" shape="621864.81,3278789.87 621877.12,3278793.88 621877.12,3278793.88 621892.94,3278799.02 621892.94,3278799.02 621918.53,3278807.26 621918.53,3278807.26 621954.22,3278818.75 621954.22,3278818.75 621981.38,3278827.48 621981.38,3278827.48 622011.75,3278837.30 622011.75,3278837.30 622041.26,3278846.78 622041.26,3278846.78 622070.84,3278856.29 622070.84,3278856.29 622104.34,3278867.07 622104.34,3278867.07 622136.62,3278877.52 622136.62,3278877.52 622184.43,3278892.94 622184.43,3278892.94 622232.36,3278908.39 622232.36,3278908.39 622278.18,3278923.19 622278.18,3278923.19 622311.55,3278933.94 622311.55,3278933.94 622334.66,3278941.39 622334.66,3278941.39 622381.48,3278956.52 622381.48,3278956.52 622409.60,3278965.53 622409.60,3278965.53 622447.95,3278977.88 622447.95,3278977.88 622490.42,3278991.55 622490.42,3278991.55 622518.58,3279000.65 622518.58,3279000.65 622553.95,3279012.07 622553.95,3279012.07 622587.98,3279023.04 622587.98,3279023.04 622622.35,3279034.11 622622.35,3279034.11 622650.66,3279043.21 622650.66,3279043.21 622677.56,3279051.80 622677.56,3279051.80 622695.82,3279057.69 622695.82,3279057.69 622718.21,3279064.90 622718.21,3279064.90 622745.75,3279073.82 622745.75,3279073.82 622779.56,3279084.75 622779.56,3279084.75 622819.45,3279097.56 622819.45,3279097.56 622848.26,3279106.91 622848.26,3279106.91 622895.74,3279122.20 622895.74,3279122.20 622929.54,3279133.14 622929.54,3279133.14 622956.46,3279141.83 622956.46,3279141.83 622988.39,3279152.12 622988.39,3279152.12 623020.49,3279162.47 623020.49,3279162.47 623052.28,3279172.73 623052.28,3279172.73 623089.67,3279184.74 623089.67,3279184.74 623123.81,3279195.77 623123.81,3279195.77 623165.65,3279209.27 623165.65,3279209.27 623215.07,3279225.21 623215.07,3279225.21 623266.25,3279241.62 623266.25,3279241.62 623335.31,3279263.89 623335.31,3279263.89 623396.30,3279283.52 623396.30,3279283.52 623448.74,3279300.37 623448.74,3279300.37 623487.22,3279312.75 623487.22,3279312.75 623521.17,3279323.68 623521.17,3279323.68 623553.93,3279334.30">
        <lane index="0" width="3.66" type="shoulder" disallow="all" />
        <lane index="1" width="3.66" />
        <lane index="2" width="3.66" />
    </edge>
    <edge id="308.0" from="node_308_start" to="node_306_start" numLanes="3" speed="13.89" type="town" shape="620384.20,3278327.33 620399.68,3278332.03 620399.68,3278332.03 620406.55,3278334.01 620406.55,3278334.01 620428.96,3278340.60 620428.96,3278340.60 620444.40,3278345.10 620444.40,3278345.10 620463.92,3278350.74 620463.92,3278350.74 620486.94,3278357.35 620486.94,3278357.35 620511.96,3278364.56 620511.96,3278364.56 620538.74,3278372.30 620538.74,3278372.30 620569.56,3278381.23 620569.56,3278381.23 620586.84,3278386.21 620586.84,3278386.21 620613.52,3278393.93 620613.52,3278393.93 620653.32,3278405.43 620653.32,3278405.43 620672.49,3278411.05 620672.49,3278411.05 620687.12,3278415.37 620687.12,3278415.37 620705.01,3278420.59 620705.01,3278420.59 620727.11,3278427.11 620727.11,3278427.11 620744.55,3278432.21 620744.55,3278432.21 620765.95,3278438.53 620765.95,3278438.53 620802.10,3278449.26 620802.10,3278449.26 620837.09,3278459.76 620837.09,3278459.76 620870.91,3278470.22 620870.91,3278470.22 620913.18,3278483.57 620913.18,3278483.57 620967.88,3278500.93 620967.88,3278500.93 621029.51,3278520.69 621029.51,3278520.69 621077.92,3278536.32 621077.92,3278536.32 621128.92,3278552.77 621128.92,3278552.77 621180.16,3278569.29 621180.16,3278569.29 621206.37,3278577.68 621206.37,3278577.68 621237.28,3278587.73 621237.28,3278587.73 621287.54,3278603.87 621287.54,3278603.87 621341.88,3278621.44 621341.88,3278621.44 621385.38,3278635.43 621385.38,3278635.43 621426.79,3278648.81 621426.79,3278648.81 621477.38,3278665.09 621477.38,3278665.09 621500.85,3278672.65 621500.85,3278672.65 621538.05,3278684.59 621538.05,3278684.59 621579.96,3278698.04 621579.96,3278698.04 621630.66,3278714.35 621630.66,3278714.35 621702.40,3278737.52 621702.40,3278737.52 621750.71,3278753.04">
        <lane index="0" width="3.66" type="shoulder" disallow="all" />
        <lane index="1" width="3.66" />
        <lane index="2" width="3.66" />
    </edge>
    <edge id="310.0" from="node_310_start" to="junction_78" numLanes="3" speed="13.89" type="town" shape="623672.82,3279372.60 623683.12,3279375.88 623683.12,3279375.88 623714.70,3279386.01 623714.70,3279386.01 623759.93,3279400.61 623759.93,3279400.61 623807.18,3279415.81 623807.18,3279415.81 623874.72,3279437.59 623874.72,3279437.59 623915.32,3279450.68 623915.32,3279450.68 623953.30,3279462.90 623953.30,3279462.90 624001.92,3279478.58 624001.92,3279478.58 624066.53,3279499.22 624066.53,3279499.22 624132.96,3279520.56 624132.96,3279520.56 624227.94,3279551.17 624227.94,3279551.17 624320.21,3279580.87 624320.21,3279580.87 624373.14,3279597.95 624373.14,3279597.95 624439.61,3279619.41 624439.61,3279619.41 624513.03,3279643.01 624513.03,3279643.01 624620.82,3279677.75 624620.82,3279677.75 624681.49,3279697.23 624681.49,3279697.23 624738.18,3279715.45 624738.18,3279715.45 624797.07,3279734.39 624797.07,3279734.39 624826.05,3279743.77 624826.05,3279743.77 624875.15,3279759.62 624875.15,3279759.62 624946.18,3279782.54 624946.18,3279782.54 624994.63,3279798.23 624994.63,3279798.23 625063.51,3279820.33 625063.51,3279820.33 625140.61,3279845.18 625140.61,3279845.18 625205.45,3279866.07 625205.45,3279866.07 625240.63,3279877.45 625240.63,3279877.45 625302.32,3279897.37 625302.32,3279897.37 625371.49,3279919.64 625371.49,3279919.64 625403.18,3279929.86 625403.18,3279929.86 625469.25,3279951.10 625469.25,3279951.10 625515.47,3279966.02 625515.47,3279966.02 625534.77,3279972.23 625534.77,3279972.23 625557.53,3279979.57 625557.53,3279979.57 625590.67,3279990.25 625590.67,3279990.25 625593.52,3279991.18">
        <lane index="0" width="3.66" type="shoulder" disallow="all" />
        <lane index="1" width="3.66" />
        <lane index="2" width="3.66" />
    </edge>
    <edge id="311.0" from="node_281_end" to="node_308_start" numLanes="2" speed="13.89" type="town" shape="620301.57,3278301.23 620317.31,3278306.48 620317.31,3278306.48 620341.67,3278314.39 620341.67,3278314.39 620360.94,3278320.32 620360.94,3278320.32 620384.20,3278327.33">
        <lane index="0" width="3.66" />
        <lane index="1" width="3.66" />
    </edge>
    <edge id="312.0" from="node_307_end" to="node_310_start" numLanes="3" speed="13.89" type="town" shape="623553.93,3279334.30 623567.57,3279338.66 623567.57,3279338.66 623612.21,3279353.04 623612.21,3279353.04 623638.90,3279361.62 623638.90,3279361.62 623665.26,3279370.13 623665.26,3279370.13 623672.82,3279372.60">
        <lane index="0" width="3.66" type="shoulder" disallow="all" />
        <lane index="1" width="3.66" />
        <lane index="2" width="3.66" />
    </edge>
    <edge id="313.0" from="junction_78" to="node_313_end" numLanes="1" speed="13.89" type="town" shape="625681.22,3280011.83 625695.25,3280014.93 625695.25,3280014.93 625711.84,3280018.71 625711.84,3280018.71 625728.28,3280022.50 625728.28,3280022.50 625740.69,3280025.36 625740.69,3280025.36 625759.23,3280029.55 625759.23,3280029.55 625780.04,3280034.33 625780.04,3280034.33 625797.05,3280038.21 625797.05,3280038.21 625819.85,3280043.54 625819.85,3280043.54 625833.35,3280046.76 625833.35,3280046.76 625842.70,3280048.86 625842.70,3280048.86 625845.24,3280049.38">
        <lane index="0" width="3.66" />
    </edge>
    <edge id="314.0" from="junction_78" to="node_314_end" numLanes="2" speed="13.89" type="town" shape="625678.83,3280018.77 625691.29,3280022.74 625691.29,3280022.74 625711.54,3280029.26 625711.54,3280029.26 625735.07,3280036.84 625735.07,3280036.84 625763.73,3280046.08 625763.73,3280046.08 625774.51,3280049.59">
        <lane index="0" width="3.66" />
        <lane index="1" width="3.66" />
    </edge>
    <edge id="315.0" from="node_314_end" to="node_315_end" numLanes="3" speed="13.89" type="town" shape="625774.51,3280049.59 625779.88,3280051.29 625779.88,3280051.29 625793.27,3280055.60 625793.27,3280055.60 625808.69,3280060.58 625808.69,3280060.58 625828.97,3280067.13 625828.97,3280067.13 625859.20,3280076.91 625859.20,3280076.91 625879.22,3280083.38 625879.22,3280083.38 625895.41,3280088.59 625895.41,3280088.59 625912.04,3280093.93 625912.04,3280093.93 625933.63,3280100.84 625933.63,3280100.84 625963.76,3280110.53 625963.76,3280110.53 625994.36,3280120.43 625994.36,3280120.43 626021.30,3280129.12 626021.30,3280129.12 626038.86,3280134.79 626038.86,3280134.79 626057.71,3280140.84 626057.71,3280140.84 626076.26,3280146.82 626076.26,3280146.82 626100.94,3280154.73 626100.94,3280154.73 626137.67,3280166.53 626137.67,3280166.53 626179.36,3280179.93 626179.36,3280179.93 626231.03,3280196.69 626231.03,3280196.69 626288.40,3280215.18 626288.40,3280215.18 626296.60,3280217.88 626296.60,3280217.88 626309.49,3280221.99 626309.49,3280221.99 626320.32,3280225.48 626320.32,3280225.48 626330.90,3280228.89 626330.90,3280228.89 626375.82,3280243.32 626375.82,3280243.32 626389.38,3280247.68 626389.38,3280247.68 626398.76,3280250.72 626398.76,3280250.72 626410.19,3280254.41 626410.19,3280254.41 626421.96,3280258.16 626421.96,3280258.16 626435.76,3280262.62 626435.76,3280262.62 626445.34,3280265.71 626445.34,3280265.71 626461.42,3280270.88 626461.42,3280270.88 626504.69,3280284.91 626504.69,3280284.91 626528.71,3280292.61">
        <lane index="0" width="3.66" type="shoulder" disallow="all" />
        <lane index="1" width="3.66" />
        <lane index="2" width="3.66" />
    </edge>
    <edge id="317.0" from="node_281_end" to="node_308_start" numLanes="1" speed="13.89" type="town" shape="620304.06,3278294.16 620385.19,3278323.81">
        <lane index="0" width="3.66" />
    </edge>
    <edge id="320.0" from="j_merge_end_22" to="node_320_end" numLanes="3" speed="13.89" type="town" shape="626887.93,3280408.33 627043.17,3280458.40 627043.17,3280458.40 627069.15,3280466.82 627069.15,3280466.82 627127.84,3280485.64 627127.84,3280485.64 627150.54,3280492.96 627150.54,3280492.96 627192.64,3280506.47 627192.64,3280506.47 627213.20,3280513.11 627213.20,3280513.11 627250.82,3280525.17 627250.82,3280525.17 627284.09,3280535.88 627284.09,3280535.88 627298.06,3280540.32 627298.06,3280540.32 627364.87,3280562.01 627364.87,3280562.01 627405.64,3280575.11 627405.64,3280575.11 627439.88,3280586.19 627439.88,3280586.19 627461.13,3280593.07 627461.13,3280593.07 627467.72,3280595.20">
        <lane index="0" width="3.66" type="shoulder" disallow="all" />
        <lane index="1" width="3.66" />
        <lane index="2" width="3.66" />
    </edge>
    <edge id="330.0" from="node_320_end" to="node_330_end" numLanes="3" speed="13.89" type="town" shape="627467.72,3280595.20 627489.09,3280602.12 627489.09,3280602.12 627517.94,3280611.45 627517.94,3280611.45 627567.55,3280627.51 627567.55,3280627.51 627588.99,3280634.44">
        <lane index="0" width="3.66" type="shoulder" disallow="all" />
        <lane index="1" width="3.66" />
        <lane index="2" width="3.66" />
    </edge>
    <edge id="333.0" from="node_330_end" to="junction_79" numLanes="3" speed="13.89" type="town" shape="627588.99,3280634.44 627599.10,3280637.71 627599.10,3280637.71 627618.61,3280644.02 627618.61,3280644.02 627638.98,3280650.54 627638.98,3280650.54 627666.28,3280659.40 627666.28,3280659.40 627719.67,3280676.52 627719.67,3280676.52 627752.49,3280687.14 627752.49,3280687.14 627778.38,3280695.54 627778.38,3280695.54 627787.86,3280698.54 627787.86,3280698.54 627801.06,3280702.80 627801.06,3280702.80 627815.27,3280707.37 627815.27,3280707.37 627829.94,3280712.03 627829.94,3280712.03 627845.40,3280717.03 627845.40,3280717.03 627862.95,3280722.65 627862.95,3280722.65 627880.74,3280728.41 627880.74,3280728.41 627893.63,3280732.57 627893.63,3280732.57 627914.56,3280739.35 627914.56,3280739.35 627934.71,3280745.84 627934.71,3280745.84 627951.29,3280751.18 627951.29,3280751.18 627974.47,3280758.71 627974.47,3280758.71 627998.74,3280766.56 627998.74,3280766.56 628022.09,3280774.07 628022.09,3280774.07 628043.18,3280780.87 628043.18,3280780.87 628063.43,3280787.39 628063.43,3280787.39 628083.71,3280793.96 628083.71,3280793.96 628102.42,3280800.01 628102.42,3280800.01 628121.54,3280806.18 628121.54,3280806.18 628145.91,3280814.06 628145.91,3280814.06 628167.67,3280821.10 628167.67,3280821.10 628192.56,3280829.12 628192.56,3280829.12 628220.30,3280838.03 628220.30,3280838.03 628244.42,3280845.68 628244.42,3280845.68 628294.01,3280861.32 628294.01,3280861.32 628313.72,3280867.36 628313.72,3280867.36 628338.11,3280874.34 628338.11,3280874.34 628361.97,3280880.77 628361.97,3280880.77 628373.57,3280883.85 628373.57,3280883.85 628392.53,3280888.54 628392.53,3280888.54 628416.29,3280894.15 628416.29,3280894.15 628434.95,3280898.37 628434.95,3280898.37 628457.39,3280903.11 628457.39,3280903.11 628479.88,3280907.48 628479.88,3280907.48 628492.91,3280909.88 628492.91,3280909.88 628509.79,3280912.85 628509.79,3280912.85 628534.57,3280916.77 628534.57,3280916.77 628556.94,3280920.14 628556.94,3280920.14 628585.65,3280923.95 628585.65,3280923.95 628605.87,3280926.38 628605.87,3280926.38 628630.11,3280928.93 628630.11,3280928.93 628655.87,3280931.34 628655.87,3280931.34 628683.15,3280933.28 628683.15,3280933.28 628710.92,3280934.93 628710.92,3280934.93 628737.45,3280936.13 628737.45,3280936.13 628771.40,3280937.14 628771.40,3280937.14 628788.89,3280937.32 628788.89,3280937.32 628803.78,3280937.35 628803.78,3280937.35 628823.76,3280937.15 628823.76,3280937.15 628841.24,3280936.86 628841.24,3280936.86 628861.02,3280936.24 628861.02,3280936.24 628880.79,3280935.29 628880.79,3280935.29 628903.27,3280934.09 628903.27,3280934.09 628919.93,3280933.06 628919.93,3280933.06 628941.94,3280931.62 628941.94,3280931.62 628961.21,3280930.35 628961.21,3280930.35 628983.25,3280928.75 628983.25,3280928.75 629007.04,3280927.03 629007.04,3280927.03 629031.31,3280925.29 629031.31,3280925.29 629050.07,3280923.93">
        <lane index="0" width="3.66" type="shoulder" disallow="all" />
        <lane index="1" width="3.66" />
        <lane index="2" width="3.66" />
    </edge>
    <edge id="336.0" from="node_315_end" to="j_merge_start_22" numLanes="2" speed="13.89" type="town" shape="626528.71,3280292.61 626547.32,3280298.58 626547.32,3280298.58 626572.63,3280306.72 626572.63,3280306.72 626606.03,3280317.44 626606.03,3280317.44 626634.39,3280326.59 626634.39,3280326.59 626723.24,3280355.27">
        <lane index="0" width="3.66" />
        <lane index="1" width="3.66" />
    </edge>
    <edge id="339.0" from="node_339_start" to="j_merge_start_22" numLanes="1" speed="13.89" type="town" shape="626395.67,3280200.22 626423.55,3280217.23 626423.55,3280217.23 626467.77,3280243.32 626467.77,3280243.32 626497.42,3280259.42 626497.42,3280259.42 626522.53,3280272.16 626522.53,3280272.16 626535.85,3280278.47 626535.85,3280278.47 626543.27,3280281.82 626543.27,3280281.82 626552.03,3280285.53 626552.03,3280285.53 626560.15,3280288.89 626560.15,3280288.89 626575.10,3280294.71 626575.10,3280294.71 626601.26,3280304.60 626601.26,3280304.60 626626.33,3280313.67 626626.33,3280313.67 626656.42,3280324.28 626656.42,3280324.28 626689.16,3280335.54 626689.16,3280335.54 626725.19,3280348.08">
        <lane index="0" width="3.66" />
    </edge>
    <edge id="275.0" from="junction_20" to="node_281_start" numLanes="4" speed="13.89" type="town" shape="619804.87,3278129.44 619813.01,3278132.24 619813.01,3278132.24 619824.83,3278136.36 619824.83,3278136.36 619834.32,3278139.62 619834.32,3278139.62 619844.40,3278143.12 619844.40,3278143.12 619851.14,3278145.46 619851.14,3278145.46 619865.93,3278150.56 619865.93,3278150.56 619875.00,3278153.70 619875.00,3278153.70 619886.60,3278157.74">
        <lane index="0" width="3.66" type="shoulder" disallow="all" />
        <lane index="1" width="3.66" />
        <lane index="2" width="3.66" />
        <lane index="3" width="3.66" />
    </edge>
    <edge id="merge_zone_22" from="j_merge_start_22" to="j_merge_end_22" numLanes="3" speed="13.89" name="Merge zone 22" type="highway_merge" shape="626794.48,3280378.15 626794.48,3280378.15 626817.97,3280385.71 626817.97,3280385.71 626887.93,3280408.33">
        <lane index="0" width="3.66" />
        <lane index="1" width="3.66" />
        <lane index="2" width="3.66" />
    </edge>
</edges>