<?xml version='1.0' encoding='utf-8'?>
<nodes>
    <node id="node_387_start" x="656517.018218216" y="3282480.025054205" type="priority" />
    <node id="node_387_end" x="656663.7031892193" y="3282496.0273255105" type="priority" />
    <node id="node_393_end" x="656706.3264769682" y="3282500.71847151" type="priority" />
    <node id="node_395_start" x="656863.7248202114" y="3282517.9391734228" type="priority" />
    <node id="node_402_start" x="653605.9013599997" y="3281913.3906948045" type="priority" />
    <node id="node_389_start" x="653899.8496067611" y="3282036.9172684783" type="priority" />
    <node id="junction_8" x="0.0" y="0.0" type="priority" />
    <node id="junction_64" x="0.0" y="0.0" type="priority" />
    <node id="junction_59" x="0.0" y="0.0" type="priority" />
    <node id="junction_108" x="0.0" y="0.0" type="priority" />
    <node id="junction_4" x="0.0" y="0.0" type="priority" />
    <node id="junction_10" x="0.0" y="0.0" type="priority" />
    <node id="junction_11" x="0.0" y="0.0" type="priority" />
    <node id="junction_67" x="0.0" y="0.0" type="priority" />
    <node id="junction_60" x="0.0" y="0.0" type="priority" />
    <node id="junction_9" x="0.0" y="0.0" type="priority" />
    <node id="junction_65" x="0.0" y="0.0" type="priority" />
    <node id="junction_5" x="0.0" y="0.0" type="priority" />
    <node id="junction_68" x="0.0" y="0.0" type="priority" />
    <node id="junction_12" x="0.0" y="0.0" type="priority" />
    <node id="junction_66" x="0.0" y="0.0" type="priority" />
    <node id="junction_61" x="0.0" y="0.0" type="priority" />
    <node id="junction_13" x="0.0" y="0.0" type="priority" />
    <node id="junction_69" x="0.0" y="0.0" type="priority" />
    <node id="junction_2" x="0.0" y="0.0" type="priority" />
    <node id="junction_58" x="0.0" y="0.0" type="priority" />
    <node id="junction_15" x="0.0" y="0.0" type="priority" />
    <node id="junction_16" x="0.0" y="0.0" type="priority" />
    <node id="junction_71" x="0.0" y="0.0" type="priority" />
    <node id="junction_14" x="0.0" y="0.0" type="priority" />
    <node id="junction_72" x="0.0" y="0.0" type="priority" />
    <node id="junction_70" x="0.0" y="0.0" type="priority" />
    <node id="junction_1" x="0.0" y="0.0" type="priority" />
    <node id="junction_73" x="0.0" y="0.0" type="priority" />
    <node id="junction_17" x="0.0" y="0.0" type="priority" />
    <node id="junction_18" x="0.0" y="0.0" type="priority" />
    <node id="junction_19" x="0.0" y="0.0" type="priority" />
    <node id="junction_74" x="0.0" y="0.0" type="priority" />
    <node id="junction_76" x="0.0" y="0.0" type="priority" />
    <node id="junction_7" x="0.0" y="0.0" type="priority" />
    <node id="junction_20" x="0.0" y="0.0" type="priority" />
    <node id="junction_75" x="0.0" y="0.0" type="priority" />
    <node id="junction_21" x="0.0" y="0.0" type="priority" />
    <node id="junction_77" x="0.0" y="0.0" type="priority" />
    <node id="junction_78" x="0.0" y="0.0" type="priority" />
    <node id="junction_62" x="0.0" y="0.0" type="priority" />
    <node id="junction_22" x="0.0" y="0.0" type="priority" />
    <node id="junction_79" x="0.0" y="0.0" type="priority" />
    <node id="junction_23" x="0.0" y="0.0" type="priority" />
    <node id="junction_3" x="0.0" y="0.0" type="priority" />
    <node id="junction_80" x="0.0" y="0.0" type="priority" />
    <node id="junction_24" x="0.0" y="0.0" type="priority" />
    <node id="junction_25" x="0.0" y="0.0" type="priority" />
    <node id="junction_81" x="0.0" y="0.0" type="priority" />
    <node id="junction_82" x="0.0" y="0.0" type="priority" />
    <node id="junction_27" x="0.0" y="0.0" type="priority" />
    <node id="junction_28" x="0.0" y="0.0" type="priority" />
    <node id="junction_84" x="0.0" y="0.0" type="priority" />
    <node id="junction_85" x="0.0" y="0.0" type="priority" />
    <node id="junction_29" x="0.0" y="0.0" type="priority" />
    <node id="junction_86" x="0.0" y="0.0" type="priority" />
    <node id="junction_87" x="0.0" y="0.0" type="priority" />
    <node id="junction_30" x="0.0" y="0.0" type="priority" />
    <node id="junction_6" x="0.0" y="0.0" type="priority" />
    <node id="junction_88" x="0.0" y="0.0" type="priority" />
    <node id="junction_31" x="0.0" y="0.0" type="priority" />
    <node id="junction_89" x="0.0" y="0.0" type="priority" />
    <node id="junction_32" x="0.0" y="0.0" type="priority" />
    <node id="junction_33" x="0.0" y="0.0" type="priority" />
    <node id="junction_91" x="0.0" y="0.0" type="priority" />
    <node id="junction_34" x="0.0" y="0.0" type="priority" />
    <node id="junction_90" x="0.0" y="0.0" type="priority" />
    <node id="junction_92" x="0.0" y="0.0" type="priority" />
    <node id="junction_37" x="0.0" y="0.0" type="priority" />
    <node id="junction_36" x="0.0" y="0.0" type="priority" />
    <node id="junction_35" x="0.0" y="0.0" type="priority" />
    <node id="junction_94" x="0.0" y="0.0" type="priority" />
    <node id="junction_93" x="0.0" y="0.0" type="priority" />
    <node id="junction_38" x="0.0" y="0.0" type="priority" />
    <node id="junction_95" x="0.0" y="0.0" type="priority" />
    <node id="junction_96" x="0.0" y="0.0" type="priority" />
    <node id="junction_39" x="0.0" y="0.0" type="priority" />
    <node id="junction_111" x="0.0" y="0.0" type="priority" />
    <node id="junction_99" x="0.0" y="0.0" type="priority" />
    <node id="junction_97" x="0.0" y="0.0" type="priority" />
    <node id="junction_41" x="0.0" y="0.0" type="priority" />
    <node id="junction_40" x="0.0" y="0.0" type="priority" />
    <node id="junction_106" x="0.0" y="0.0" type="priority" />
    <node id="junction_100" x="0.0" y="0.0" type="priority" />
    <node id="junction_42" x="0.0" y="0.0" type="priority" />
    <node id="junction_101" x="0.0" y="0.0" type="priority" />
    <node id="junction_47" x="0.0" y="0.0" type="priority" />
    <node id="junction_43" x="0.0" y="0.0" type="priority" />
    <node id="junction_98" x="0.0" y="0.0" type="priority" />
    <node id="junction_103" x="0.0" y="0.0" type="priority" />
    <node id="junction_44" x="0.0" y="0.0" type="priority" />
    <node id="junction_102" x="0.0" y="0.0" type="priority" />
    <node id="junction_104" x="0.0" y="0.0" type="priority" />
    <node id="junction_63" x="0.0" y="0.0" type="priority" />
    <node id="junction_105" x="0.0" y="0.0" type="priority" />
    <node id="junction_45" x="0.0" y="0.0" type="priority" />
    <node id="junction_46" x="0.0" y="0.0" type="priority" />
    <node id="junction_48" x="0.0" y="0.0" type="priority" />
    <node id="junction_107" x="0.0" y="0.0" type="priority" />
    <node id="junction_49" x="0.0" y="0.0" type="priority" />
    <node id="junction_109" x="0.0" y="0.0" type="priority" />
    <node id="junction_50" x="0.0" y="0.0" type="priority" />
    <node id="junction_51" x="0.0" y="0.0" type="priority" />
    <node id="junction_110" x="0.0" y="0.0" type="priority" />
    <node id="junction_52" x="0.0" y="0.0" type="priority" />
    <node id="junction_53" x="0.0" y="0.0" type="priority" />
    <node id="junction_113" x="0.0" y="0.0" type="priority" />
    <node id="junction_54" x="0.0" y="0.0" type="priority" />
    <node id="junction_55" x="0.0" y="0.0" type="priority" />
    <node id="junction_57" x="0.0" y="0.0" type="priority" />
    <node id="junction_114" x="0.0" y="0.0" type="priority" />
    <node id="junction_56" x="0.0" y="0.0" type="priority" />
    <node id="junction_83" x="663617.5739289836" y="3283258.3733162032" type="priority" />
    <node id="junction_26" x="654013.2810291991" y="3282050.668146102" type="priority" />
</nodes>