<?xml version="1.0" encoding="UTF-8"?>

<!-- generated on 2025-10-19 17:35:17 by Eclipse SUMO netconvert Version 1.23.1
<netconvertConfiguration xmlns:xsi="http://www.w3.org/2001/XMLSchema-instance" xsi:noNamespaceSchemaLocation="http://sumo.dlr.de/xsd/netconvertConfiguration.xsd">

    <input>
        <node-files value="/home/sdai/harry/TeraSim/jupiter/eb/jupiter_eb_tiles/tile_0058/tile_0058.nod.xml"/>
        <edge-files value="/home/sdai/harry/TeraSim/jupiter/eb/jupiter_eb_tiles/tile_0058/tile_0058.edg.xml"/>
    </input>

    <output>
        <output-file value="/home/sdai/harry/TeraSim/jupiter/eb/jupiter_eb_tiles/tile_0058/tile_0058.net.xml"/>
        <output.street-names value="true"/>
        <output.original-names value="true"/>
    </output>

    <processing>
        <geometry.remove value="false"/>
        <geometry.min-dist value="0.5"/>
        <edges.join value="false"/>
    </processing>

    <junctions>
        <no-internal-links value="false"/>
        <no-turnarounds value="true"/>
        <junctions.join value="true"/>
        <junctions.join-dist value="10"/>
        <junctions.corner-detail value="5"/>
        <junctions.internal-link-detail value="5"/>
        <junctions.limit-turn-speed value="5.5"/>
        <rectangular-lane-cut value="true"/>
        <check-lane-foes.all value="true"/>
    </junctions>

</netconvertConfiguration>
-->

<net version="1.20" junctionCornerDetail="5" junctionLinkDetail="5" rectangularLaneCut="true" limitTurnSpeed="5.50" checkLaneFoesAll="1" xmlns:xsi="http://www.w3.org/2001/XMLSchema-instance" xsi:noNamespaceSchemaLocation="http://sumo.dlr.de/xsd/net_file.xsd">

    <location netOffset="-653605.90,-3281913.39" convBoundary="0.00,0.00,10011.67,1344.98" origBoundary="0.00,0.00,663617.57,3283258.37" projParameter="!"/>

    <edge id=":junction_26_0" function="internal">
        <lane id=":junction_26_0_0" index="0" speed="13.89" length="118.01" width="3.66" shape="369.61,124.71 485.60,146.12"/>
        <lane id=":junction_26_0_1" index="1" speed="13.89" length="118.01" width="3.66" shape="369.61,124.71 485.00,149.73"/>
    </edge>
    <edge id=":node_387_end_0" function="internal">
        <lane id=":node_387_end_0_0" index="0" speed="13.89" length="0.30" width="3.66" shape="3058.25,577.17 3058.55,577.20"/>
        <lane id=":node_387_end_0_1" index="1" speed="13.89" length="0.30" width="3.66" shape="3057.85,580.80 3058.15,580.84"/>
    </edge>
    <edge id=":node_387_start_0" function="internal">
        <lane id=":node_387_start_0_0" index="0" speed="13.89" length="0.30" width="3.66" shape="2911.56,561.17 2911.86,561.20"/>
        <lane id=":node_387_start_0_1" index="1" speed="13.89" length="0.30" width="3.66" shape="2911.17,564.80 2911.47,564.84"/>
    </edge>
    <edge id=":node_393_end_0" function="internal">
        <lane id=":node_393_end_0_0" index="0" speed="13.89" length="0.30" width="3.66" shape="3100.88,581.86 3101.17,581.89"/>
        <lane id=":node_393_end_0_1" index="1" speed="13.89" length="0.30" width="3.66" shape="3100.48,585.49 3100.78,585.53"/>
    </edge>
    <edge id=":node_395_start_0" function="internal">
        <lane id=":node_395_start_0_0" index="0" speed="13.89" length="0.30" width="3.66" shape="3258.26,599.08 3258.56,599.11"/>
        <lane id=":node_395_start_0_1" index="1" speed="13.89" length="0.30" width="3.66" shape="3257.87,602.71 3258.16,602.75"/>
    </edge>

    <edge id="387.0" from="node_387_start" to="node_387_end" priority="-1" type="town" shape="2911.12,566.64 2912.80,566.82 2926.89,568.32 2941.09,569.87 2954.73,571.35 2967.45,572.71 2979.83,574.08 2993.76,575.60 3007.30,577.09 3022.06,578.72 3036.06,580.23 3049.86,581.76 3057.80,582.64">
        <lane id="387.0_0" index="0" disallow="all" speed="13.89" length="147.26" width="3.66" shape="2912.25,557.56 2913.77,557.72 2927.87,559.22 2942.08,560.77 2955.71,562.25 2968.44,563.61 2980.83,564.98 2994.76,566.50 3008.30,568.00 3023.05,569.62 3037.05,571.13 3050.87,572.67 3058.66,573.53" type="shoulder"/>
        <lane id="387.0_1" index="1" speed="13.89" length="147.26" width="3.66" shape="2911.86,561.20 2913.38,561.36 2927.48,562.86 2941.68,564.41 2955.32,565.89 2968.04,567.25 2980.43,568.62 2994.36,570.14 3007.90,571.63 3022.66,573.26 3036.66,574.77 3050.46,576.30 3058.25,577.17"/>
        <lane id="387.0_2" index="2" speed="13.89" length="147.26" width="3.66" shape="2911.47,564.84 2912.99,565.00 2927.09,566.50 2941.29,568.05 2954.93,569.53 2967.65,570.89 2980.03,572.26 2993.96,573.78 3007.50,575.27 3022.26,576.90 3036.26,578.41 3050.06,579.94 3057.85,580.80"/>
    </edge>
    <edge id="392.0" from="junction_26" to="node_387_start" priority="-1" type="town" shape="484.70,151.54 496.96,153.57 508.10,155.47 523.67,158.11 539.06,160.82 568.45,165.98 582.16,168.42 599.67,171.53 614.70,174.25 629.38,176.88 643.38,179.45 659.89,182.45 674.62,185.15 691.11,188.19 704.65,190.72 719.68,193.53 733.88,196.22 748.19,198.89 763.81,201.82 780.66,204.98 796.46,207.89 809.64,210.34 823.45,212.93 838.49,215.69 851.07,218.01 864.82,220.52 877.18,222.85 891.14,225.39 900.32,227.09 918.70,230.51 935.48,233.59 959.13,237.94 981.59,242.08 1003.45,246.08 1026.12,250.26 1048.05,254.29 1064.52,257.37 1083.71,260.89 1101.52,264.22 1124.90,268.57 1145.50,272.40 1165.41,276.11 1184.68,279.68 1204.64,283.37 1219.96,286.23 1239.16,289.78 1257.97,293.23 1275.82,296.55 1297.07,300.47 1322.37,305.16 1343.55,309.07 1361.27,312.31 1383.07,316.33 1402.03,319.82 1421.72,323.44 1440.97,327.00 1459.86,330.52 1475.03,333.35 1493.20,336.73 1506.03,339.08 1518.75,341.45 1534.79,344.43 1546.73,346.66 1558.45,348.82 1571.61,351.27 1585.28,353.79 1600.33,356.58 1613.35,358.97 1629.13,361.92 1647.37,365.31 1667.54,369.02 1682.34,371.78 1694.83,374.08 1709.57,376.80 1722.04,379.09 1733.51,381.15 1744.46,383.18 1758.55,385.78 1771.98,388.23 1784.61,390.56 1797.24,392.91 1811.12,395.48 1822.94,397.64 1835.46,399.93 1853.04,403.18 1866.63,405.68 1877.85,407.77 1890.32,410.07 1903.68,412.55 1917.22,415.07 1932.25,417.82 1945.47,420.30 1961.89,423.36 1970.92,425.01 1983.81,427.39 1998.27,430.07 2011.82,432.55 2023.17,434.69 2041.90,438.11 2053.67,440.28 2067.66,442.85 2083.47,445.76 2097.49,448.33 2111.21,450.84 2127.09,453.80 2142.90,456.74 2157.49,459.45 2171.42,462.02 2186.00,464.74 2200.80,467.50 2217.22,470.53 2233.00,473.44 2249.01,476.41 2263.96,479.14 2280.80,482.24 2292.90,484.47 2304.75,486.63 2317.18,488.90 2327.83,490.88 2341.94,493.51 2355.72,496.04 2376.34,499.82 2395.91,503.34 2415.74,506.71 2436.45,510.12 2457.52,513.34 2477.64,516.37 2496.54,519.11 2516.05,521.91 2533.34,524.24 2551.16,526.51 2568.26,528.67 2586.29,530.81 2601.63,532.63 2620.60,534.77 2635.29,536.39 2653.74,538.45 2669.84,540.20 2684.33,541.79 2698.44,543.33 2713.31,544.98 2726.71,546.44 2743.86,548.33 2760.91,550.19 2776.87,551.90 2787.99,553.12 2795.25,553.94 2804.85,555.04 2814.75,556.11 2826.58,557.43 2837.47,558.62 2846.24,559.57 2859.38,560.97 2868.14,561.92 2878.33,563.04 2890.04,564.29 2900.41,565.47 2911.12,566.64">
        <lane id="392.0_0" index="0" disallow="all" speed="13.89" length="2462.05" width="3.66" shape="486.19,142.51 498.48,144.55 509.63,146.45 525.23,149.09 540.64,151.81 570.04,156.97 583.76,159.41 601.28,162.52 616.32,165.24 631.01,167.88 645.02,170.45 661.53,173.45 676.27,176.15 692.78,179.19 706.33,181.73 721.37,184.54 735.57,187.23 749.87,189.90 765.50,192.83 782.33,195.98 798.12,198.89 811.32,201.35 825.12,203.93 840.15,206.69 852.72,209.01 866.49,211.52 878.84,213.85 892.79,216.39 901.99,218.09 920.36,221.51 937.13,224.59 960.79,228.94 983.24,233.08 1005.10,237.08 1027.78,241.26 1049.72,245.29 1066.19,248.37 1085.38,251.89 1103.20,255.23 1126.57,259.57 1147.17,263.40 1167.08,267.11 1186.35,270.68 1206.31,274.37 1221.63,277.23 1240.82,280.78 1259.63,284.23 1277.49,287.55 1298.73,291.47 1324.03,296.16 1345.20,300.07 1362.92,303.31 1384.73,307.33 1403.69,310.82 1423.38,314.44 1442.64,318.00 1461.54,321.52 1476.71,324.35 1494.86,327.73 1507.69,330.08 1520.42,332.45 1536.46,335.43 1548.40,337.66 1560.12,339.82 1573.28,342.27 1586.94,344.79 1601.99,347.58 1615.02,349.97 1630.81,352.92 1649.03,356.31 1669.20,360.02 1684.01,362.78 1696.49,365.08 1711.23,367.80 1723.68,370.09 1735.15,372.15 1746.12,374.18 1760.20,376.78 1773.63,379.23 1786.28,381.56 1798.91,383.91 1812.78,386.48 1824.59,388.64 1837.12,390.93 1854.70,394.18 1868.29,396.68 1879.52,398.77 1891.98,401.07 1905.35,403.55 1918.88,406.07 1933.92,408.82 1947.15,411.31 1963.56,414.36 1972.57,416.01 1985.47,418.39 1999.93,421.07 2013.49,423.55 2024.84,425.69 2043.55,429.11 2055.33,431.28 2069.31,433.85 2085.12,436.76 2099.14,439.33 2112.87,441.84 2128.76,444.80 2144.57,447.74 2159.16,450.45 2173.09,453.02 2187.68,455.75 2202.47,458.50 2218.88,461.53 2234.66,464.44 2250.67,467.41 2265.61,470.14 2282.46,473.24 2294.55,475.47 2306.39,477.63 2318.84,479.90 2329.50,481.88 2343.60,484.51 2357.37,487.04 2377.98,490.82 2397.49,494.33 2417.25,497.69 2437.88,501.08 2458.89,504.29 2478.98,507.32 2497.85,510.05 2517.31,512.85 2534.53,515.17 2552.31,517.43 2569.37,519.59 2587.37,521.72 2602.68,523.54 2621.62,525.68 2636.30,527.30 2654.74,529.36 2670.83,531.10 2685.33,532.69 2699.44,534.23 2714.31,535.88 2727.71,537.34 2744.86,539.23 2761.89,541.09 2777.85,542.80 2789.00,544.03 2796.29,544.85 2805.86,545.95 2815.75,547.01 2827.58,548.34 2838.46,549.52 2847.22,550.47 2860.36,551.87 2869.13,552.82 2879.31,553.94 2891.04,555.19 2901.42,556.38 2911.96,557.53" type="shoulder"/>
        <lane id="392.0_1" index="1" speed="13.89" length="2462.05" width="3.66" shape="485.60,146.12 497.87,148.16 509.02,150.06 524.60,152.70 540.01,155.41 569.40,160.57 583.12,163.01 600.64,166.13 615.67,168.85 630.36,171.48 644.37,174.05 660.88,177.05 675.61,179.75 692.11,182.79 705.66,185.32 720.70,188.13 734.89,190.82 749.20,193.49 764.82,196.42 781.66,199.58 797.46,202.49 810.65,204.94 824.45,207.53 839.48,210.29 852.06,212.61 865.82,215.12 878.18,217.45 892.13,219.99 901.32,221.69 919.70,225.11 936.47,228.19 960.12,232.54 982.58,236.68 1004.44,240.68 1027.11,244.86 1049.05,248.89 1065.52,251.97 1084.71,255.49 1102.53,258.82 1125.90,263.17 1146.50,267.00 1166.41,270.71 1185.68,274.28 1205.64,277.97 1220.96,280.83 1240.15,284.38 1258.97,287.83 1276.82,291.15 1298.07,295.07 1323.37,299.76 1344.54,303.67 1362.26,306.91 1384.06,310.93 1403.02,314.42 1422.72,318.04 1441.97,321.60 1460.87,325.12 1476.04,327.95 1494.20,331.33 1507.03,333.68 1519.75,336.05 1535.79,339.03 1547.73,341.26 1559.45,343.42 1572.61,345.87 1586.28,348.39 1601.33,351.18 1614.35,353.57 1630.14,356.52 1648.37,359.91 1668.54,363.62 1683.34,366.38 1695.83,368.68 1710.56,371.40 1723.02,373.69 1734.50,375.75 1745.46,377.78 1759.54,380.38 1772.97,382.83 1785.61,385.16 1798.24,387.51 1812.11,390.08 1823.93,392.24 1836.45,394.53 1854.04,397.78 1867.63,400.28 1878.85,402.37 1891.32,404.67 1904.68,407.15 1918.22,409.67 1933.25,412.42 1946.48,414.90 1962.89,417.96 1971.91,419.61 1984.81,421.99 1999.26,424.67 2012.82,427.15 2024.17,429.29 2042.89,432.71 2054.66,434.88 2068.65,437.45 2084.46,440.36 2098.48,442.93 2112.21,445.44 2128.09,448.40 2143.90,451.34 2158.49,454.05 2172.42,456.62 2187.01,459.34 2201.80,462.10 2218.22,465.13 2234.00,468.04 2250.00,471.01 2264.95,473.74 2281.79,476.84 2293.89,479.07 2305.74,481.23 2318.17,483.50 2328.83,485.48 2342.94,488.11 2356.71,490.64 2377.32,494.42 2396.86,497.93 2416.65,501.30 2437.31,504.70 2458.34,507.91 2478.44,510.94 2497.32,513.68 2516.81,516.47 2534.05,518.80 2551.85,521.06 2568.93,523.22 2586.94,525.36 2602.26,527.18 2621.21,529.31 2635.90,530.93 2654.34,532.99 2670.44,534.74 2684.93,536.33 2699.04,537.87 2713.91,539.52 2727.31,540.98 2744.46,542.87 2761.50,544.73 2777.46,546.44 2788.60,547.66 2795.87,548.49 2805.46,549.58 2815.35,550.65 2827.18,551.97 2838.06,553.16 2846.83,554.11 2859.97,555.51 2868.74,556.46 2878.92,557.58 2890.64,558.83 2901.02,560.01 2911.56,561.17"/>
        <lane id="392.0_2" index="2" speed="13.89" length="2462.05" width="3.66" shape="485.00,149.73 497.26,151.77 508.41,153.67 523.98,156.31 539.38,159.02 568.77,164.18 582.48,166.62 599.99,169.73 615.02,172.45 629.71,175.08 643.71,177.65 660.22,180.65 674.95,183.35 691.44,186.39 704.99,188.92 720.02,191.73 734.22,194.42 748.53,197.09 764.15,200.02 780.99,203.18 796.79,206.09 809.98,208.54 823.78,211.13 838.82,213.89 851.40,216.21 865.15,218.72 877.51,221.05 891.47,223.59 900.65,225.29 919.03,228.71 935.81,231.79 959.46,236.14 981.92,240.28 1003.78,244.28 1026.45,248.46 1048.38,252.49 1064.85,255.57 1084.04,259.09 1101.86,262.42 1125.23,266.77 1145.83,270.60 1165.74,274.31 1185.01,277.88 1204.97,281.57 1220.29,284.43 1239.49,287.98 1258.30,291.43 1276.15,294.75 1297.40,298.67 1322.70,303.36 1343.88,307.27 1361.60,310.51 1383.40,314.53 1402.36,318.02 1422.05,321.64 1441.30,325.20 1460.20,328.72 1475.37,331.55 1493.53,334.93 1506.36,337.28 1519.08,339.65 1535.12,342.63 1547.06,344.86 1558.78,347.02 1571.94,349.47 1585.61,351.99 1600.66,354.78 1613.68,357.17 1629.47,360.12 1647.70,363.51 1667.87,367.22 1682.67,369.98 1695.16,372.28 1709.90,375.00 1722.37,377.29 1733.84,379.35 1744.79,381.38 1758.88,383.98 1772.31,386.43 1784.94,388.76 1797.57,391.11 1811.45,393.68 1823.27,395.84 1835.79,398.13 1853.37,401.38 1866.96,403.88 1878.18,405.97 1890.65,408.27 1904.01,410.75 1917.55,413.27 1932.58,416.02 1945.81,418.50 1962.22,421.56 1971.25,423.21 1984.14,425.59 1998.60,428.27 2012.15,430.75 2023.50,432.89 2042.23,436.31 2054.00,438.48 2067.99,441.05 2083.80,443.96 2097.82,446.53 2111.54,449.04 2127.42,452.00 2143.23,454.94 2157.82,457.65 2171.75,460.22 2186.34,462.94 2201.13,465.70 2217.55,468.73 2233.33,471.64 2249.34,474.61 2264.29,477.34 2281.13,480.44 2293.23,482.67 2305.08,484.83 2317.51,487.10 2328.16,489.08 2342.27,491.71 2356.05,494.24 2376.67,498.02 2396.23,501.54 2416.04,504.91 2436.74,508.31 2457.79,511.53 2477.91,514.56 2496.80,517.30 2516.30,520.10 2533.58,522.43 2551.39,524.69 2568.48,526.85 2586.51,528.99 2601.84,530.81 2620.80,532.95 2635.49,534.57 2653.94,536.63 2670.04,538.38 2684.53,539.97 2698.64,541.51 2713.51,543.16 2726.91,544.62 2744.06,546.51 2761.11,548.37 2777.07,550.08 2788.19,551.30 2795.46,552.12 2805.05,553.22 2814.95,554.29 2826.78,555.61 2837.67,556.80 2846.44,557.75 2859.58,559.15 2868.34,560.10 2878.53,561.22 2890.24,562.47 2900.61,563.65 2911.17,564.80"/>
    </edge>
    <edge id="393.0" from="node_387_end" to="node_393_end" priority="-1" type="town" shape="3057.80,582.64 3066.11,583.55 3083.45,585.46 3100.43,587.33">
        <lane id="393.0_0" index="0" disallow="all" speed="13.89" length="42.58" width="3.66" shape="3058.95,573.56 3067.11,574.45 3084.45,576.36 3101.28,578.22" type="shoulder"/>
        <lane id="393.0_1" index="1" speed="13.89" length="42.58" width="3.66" shape="3058.55,577.20 3066.71,578.09 3084.05,580.00 3100.88,581.86"/>
        <lane id="393.0_2" index="2" speed="13.89" length="42.58" width="3.66" shape="3058.15,580.84 3066.31,581.73 3083.65,583.64 3100.48,585.49"/>
    </edge>
    <edge id="395.0" from="node_395_start" to="junction_83" priority="-1" type="town" shape="3257.82,604.55 3270.93,605.97 3284.59,607.42 3295.22,608.59 3312.94,610.52 3329.10,612.29 3349.89,614.58 3363.68,616.05 3377.52,617.57 3393.91,619.33 3407.84,620.82 3420.89,622.22 3435.15,623.77 3449.75,625.35 3462.59,626.75 3476.78,628.30 3488.19,629.57 3501.08,630.98 3513.18,632.34 3528.30,633.99 3540.86,635.37 3555.38,636.97 3567.86,638.33 3579.71,639.65 3592.20,641.06 3606.57,642.63 3621.04,644.24 3634.92,645.78 3645.50,646.95 3657.99,648.32 3667.00,649.30 3679.52,650.65 3686.26,651.39 3700.74,652.97 3716.22,654.68 3730.09,656.20 3744.77,657.81 3757.14,659.17 3768.25,660.38 3780.17,661.71 3791.29,662.95 3801.85,664.11 3813.00,665.30 3825.89,666.73 3841.05,668.42 3863.10,670.88 3887.90,673.62 3912.60,676.28 3932.06,678.40 3946.70,680.03 3963.82,681.90 3981.12,683.75 3998.41,685.63 4018.86,687.84 4035.89,689.68 4052.62,691.49 4068.79,693.24 4084.52,695.01 4102.79,697.04 4118.30,698.77 4137.34,700.83 4154.58,702.74 4171.76,704.63 4192.58,706.87 4211.47,708.95 4233.42,711.33 4256.30,713.84 4277.62,716.18 4297.57,718.34 4316.88,720.48 4338.33,722.82 4361.40,725.37 4385.35,727.97 4410.31,730.73 4432.86,733.22 4452.92,735.47 4473.06,737.71 4495.99,740.24 4519.97,742.86 4540.72,745.11 4563.34,747.56 4588.54,750.32 4608.71,752.52 4625.13,754.32 4646.65,756.69 4667.83,759.04 4691.14,761.57 4708.28,763.48 4730.86,765.90 4751.86,768.22 4769.74,770.17 4788.01,772.21 4799.97,773.48 4816.33,775.30 4830.74,776.88 4848.61,778.84 4861.76,780.27 4869.26,781.11 4887.65,783.11 4905.88,785.14 4922.83,786.96 4938.01,788.61 4952.13,790.14 4966.71,791.70 4978.39,793.01 4991.11,794.43 5005.16,795.97 5016.35,797.21 5030.59,798.77 5038.06,799.57 5044.58,800.30 5051.00,800.97 5057.84,801.74 5064.69,802.47 5070.26,803.11 5077.23,803.86 5083.62,804.56 5090.03,805.25 5095.85,805.90 5103.96,806.75 5110.28,807.44 5117.72,808.23 5122.66,808.75 5129.85,809.53 5135.24,810.09 5141.29,810.75 5147.87,811.46 5155.28,812.28 5161.77,812.98 5168.21,813.67 5174.67,814.38 5182.01,815.16 5188.27,815.85 5195.72,816.65 5201.91,817.32 5207.39,817.93 5212.18,818.45 5219.27,819.24 5225.55,819.94 5231.55,820.60 5237.21,821.20 5243.27,821.89 5249.14,822.51 5254.33,823.11 5258.28,823.52 5263.46,824.06 5269.08,824.68 5274.78,825.33 5281.41,826.07 5285.77,826.55 5290.84,827.12 5295.19,827.62 5300.98,828.24 5306.11,828.79 5311.74,829.40 5316.94,829.97 5321.71,830.49 5326.27,831.00 5330.99,831.49 5335.96,832.06 5342.15,832.72 5349.71,833.54 5355.32,834.18 5361.11,834.79 5366.67,835.37 5373.77,836.15 5379.45,836.75 5386.18,837.48 5395.70,838.53 5406.17,839.66 5413.71,840.51 5425.54,841.80 5438.03,843.21 5447.98,844.29 5459.15,845.53 5466.50,846.31 5474.37,847.16 5483.03,848.09 5493.81,849.30 5502.30,850.23 5508.98,850.96 5516.58,851.79 5520.27,852.21 5529.71,853.23 5541.78,854.54 5551.51,855.61 5562.86,856.85 5571.36,857.76 5582.02,858.93 5590.53,859.87 5618.99,862.99 5641.12,865.40 5649.99,866.37 5666.83,868.22 5679.50,869.61 5697.20,871.54 5715.82,873.65 5730.75,875.24 5745.47,876.88 5763.33,878.83 5780.41,880.67 5795.72,882.36 5811.49,884.09 5830.99,886.16 5847.71,888.02 5862.77,889.69 5879.62,891.58 5896.53,893.45 5913.64,895.32 5931.04,897.28 5947.80,899.15 5964.21,900.97 5981.64,902.89 5997.69,904.62 6014.49,906.44 6033.79,908.58 6053.31,910.69 6071.29,912.64 6092.15,914.89 6109.37,916.81 6124.84,918.47 6142.97,920.44 6161.31,922.45 6177.08,924.14 6192.40,925.85 6210.49,927.82 6228.65,929.80 6244.33,931.54 6261.70,933.45 6277.09,935.16 6289.88,936.55 6306.82,938.45 6322.90,940.22 6340.07,942.13 6358.37,944.10 6376.21,946.09 6397.10,948.40 6415.61,950.45 6431.76,952.22 6447.21,953.86 6457.70,955.03 6471.25,956.49 6484.13,957.89 6498.86,959.52 6513.15,961.03 6523.47,962.19 6534.98,963.42 6547.66,964.81 6559.24,966.09 6572.74,967.55 6584.31,968.77 6599.80,970.46 6614.19,972.00 6628.10,973.53 6640.55,974.87 6653.35,976.26 6668.10,977.87 6680.56,979.24 6693.46,980.66 6706.46,982.09 6719.68,983.55 6733.06,984.98 6745.67,986.41 6756.28,987.59 6780.29,990.17 6802.04,992.56 6824.91,995.12 6853.25,998.27 6876.98,1000.92 6899.53,1003.37 6922.55,1005.90 6944.52,1008.29 6962.49,1010.28 6985.56,1012.78 7007.04,1015.11 7028.00,1017.43 7048.82,1019.68 7069.51,1021.92 7087.11,1023.82 7113.72,1026.69 7136.70,1029.12 7158.13,1031.42 7181.24,1033.90 7204.95,1036.50 7226.05,1038.78 7248.99,1041.30 7269.03,1043.55 7289.42,1045.80 7309.24,1047.96 7329.29,1050.16 7347.49,1052.14 7366.74,1054.30 7388.57,1056.63 7411.12,1059.12 7436.29,1061.86 7464.38,1064.99 7488.35,1067.59 7514.45,1070.42 7538.51,1073.10 7562.83,1075.77 7587.13,1078.48 7613.92,1081.44 7643.92,1084.76 7666.06,1087.21 7689.10,1089.75 7708.65,1091.85 7733.26,1094.54 7757.48,1097.20 7781.06,1099.78 7805.88,1102.49 7827.68,1104.88 7851.52,1107.47 7875.47,1110.11 7900.58,1112.88 7917.82,1114.83 7941.40,1117.40 7964.96,1119.97 7990.69,1122.82 8012.06,1125.17 8033.33,1127.50 8053.97,1129.73 8075.65,1132.15 8099.50,1134.78 8124.38,1137.52 8151.73,1140.52 8182.75,1143.93 8211.68,1147.13 8240.66,1150.30 8265.53,1153.06 8292.03,1155.97 8312.89,1158.24 8342.88,1161.45 8371.84,1164.67 8400.50,1167.73 8427.98,1170.72 8454.94,1173.66 8481.22,1176.60 8507.09,1179.47 8529.85,1182.01 8550.26,1184.26 8576.42,1187.16 8597.76,1189.52 8625.53,1192.55 8653.15,1195.65 8683.39,1198.99 8708.98,1201.84 8745.40,1205.82 8774.52,1209.05 8801.97,1212.04 8831.10,1215.17 8856.07,1217.93 8885.60,1221.14 8915.99,1224.52 8952.76,1228.53 8976.29,1231.06 9004.74,1234.14 9041.82,1238.30 9073.79,1241.81 9108.05,1245.55 9138.77,1248.95 9167.66,1252.13 9200.07,1255.71 9228.05,1258.80 9257.30,1262.09 9283.99,1265.05 9307.71,1267.69 9328.12,1269.95 9350.99,1272.42 9374.98,1275.04 9400.72,1277.91 9424.34,1280.51 9455.21,1283.90 9467.26,1285.19 9497.21,1288.46 9521.21,1291.08 9544.93,1293.64 9572.21,1296.64 9598.53,1299.53 9623.81,1302.31 9651.10,1305.24 9677.13,1308.12 9699.74,1310.66 9728.06,1313.74 9760.17,1317.20 9798.23,1321.36 9830.45,1324.88 9864.00,1328.58 9895.28,1332.10 9927.08,1335.62 9959.59,1339.26 9988.51,1342.45 10011.67,1344.98">
        <lane id="395.0_0" index="0" disallow="all" speed="13.89" length="6794.18" width="3.66" shape="3258.95,595.47 3271.91,596.87 3285.57,598.32 3296.21,599.49 3313.93,601.42 3330.10,603.19 3350.88,605.48 3364.66,606.95 3378.51,608.47 3394.89,610.23 3408.81,611.72 3421.87,613.12 3436.14,614.67 3450.74,616.25 3463.58,617.65 3477.78,619.21 3489.19,620.48 3502.09,621.89 3514.19,623.25 3529.30,624.89 3541.86,626.27 3556.38,627.87 3568.86,629.24 3580.73,630.56 3593.21,631.97 3607.57,633.54 3622.05,635.15 3635.93,636.69 3646.50,637.85 3658.98,639.22 3667.98,640.20 3680.51,641.55 3687.25,642.29 3701.74,643.87 3717.22,645.58 3731.09,647.10 3745.77,648.71 3758.14,650.07 3769.25,651.29 3781.18,652.62 3792.30,653.86 3802.83,655.01 3813.99,656.20 3826.90,657.64 3842.06,659.33 3864.11,661.79 3888.89,664.52 3913.58,667.18 3933.06,669.30 3947.70,670.94 3964.80,672.80 3982.10,674.65 3999.40,676.53 4019.84,678.74 4036.87,680.58 4053.60,682.39 4069.79,684.15 4085.54,685.92 4103.80,687.95 4119.30,689.67 4138.34,691.73 4155.58,693.65 4172.75,695.53 4193.57,697.77 4212.46,699.85 4234.41,702.23 4257.30,704.74 4278.61,707.08 4298.57,709.24 4317.88,711.38 4339.33,713.72 4362.40,716.27 4386.35,718.87 4411.31,721.64 4433.87,724.13 4453.94,726.38 4474.07,728.62 4496.99,731.14 4520.96,733.76 4541.71,736.01 4564.33,738.46 4589.53,741.22 4609.70,743.42 4626.13,745.22 4647.66,747.60 4668.83,749.94 4692.14,752.47 4709.27,754.38 4731.85,756.80 4752.86,759.12 4770.74,761.08 4789.01,763.11 4800.96,764.38 4817.33,766.21 4831.74,767.78 4849.60,769.74 4862.76,771.17 4870.26,772.01 4888.65,774.01 4906.88,776.04 4923.81,777.86 4939.00,779.51 4953.11,781.04 4967.70,782.60 4979.41,783.92 4992.12,785.34 5006.16,786.88 5017.35,788.11 5031.58,789.67 5039.05,790.47 5045.56,791.20 5051.99,791.87 5058.84,792.64 5065.69,793.38 5071.27,794.02 5078.22,794.76 5084.61,795.46 5091.03,796.15 5096.83,796.80 5104.93,797.65 5111.26,798.34 5118.68,799.13 5123.64,799.65 5130.82,800.43 5136.21,800.99 5142.28,801.65 5148.86,802.36 5156.27,803.18 5162.75,803.88 5169.20,804.57 5175.65,805.28 5182.99,806.06 5189.26,806.75 5196.70,807.55 5202.91,808.22 5208.39,808.83 5213.18,809.36 5220.28,810.15 5226.56,810.85 5232.53,811.50 5238.21,812.10 5244.27,812.79 5250.14,813.42 5255.33,814.02 5259.23,814.42 5264.44,814.96 5270.10,815.59 5275.81,816.24 5282.42,816.98 5286.78,817.46 5291.87,818.03 5296.19,818.53 5301.95,819.14 5307.09,819.69 5312.73,820.30 5317.93,820.87 5322.71,821.40 5327.25,821.90 5331.98,822.39 5336.96,822.97 5343.13,823.62 5350.72,824.45 5356.32,825.08 5362.06,825.69 5367.65,826.27 5374.75,827.05 5380.43,827.65 5387.18,828.38 5396.69,829.43 5407.17,830.56 5414.71,831.42 5426.55,832.71 5439.04,834.12 5448.98,835.19 5460.14,836.43 5467.47,837.21 5475.35,838.06 5484.03,838.99 5494.82,840.21 5503.30,841.13 5509.97,841.86 5517.59,842.70 5521.27,843.11 5530.70,844.13 5542.77,845.44 5552.51,846.51 5563.85,847.75 5572.35,848.66 5583.02,849.83 5591.53,850.77 5619.98,853.89 5642.11,856.30 5650.99,857.27 5667.83,859.12 5680.49,860.51 5698.21,862.45 5716.82,864.55 5731.74,866.14 5746.47,867.79 5764.32,869.73 5781.40,871.57 5796.72,873.26 5812.47,874.99 5831.98,877.06 5848.72,878.93 5863.78,880.60 5880.63,882.49 5897.53,884.35 5914.65,886.23 5932.06,888.19 5948.81,890.06 5965.22,891.88 5982.63,893.79 5998.67,895.52 6015.49,897.34 6034.79,899.48 6054.29,901.59 6072.27,903.54 6093.15,905.79 6110.37,907.71 6125.82,909.37 6143.96,911.34 6162.30,913.35 6178.07,915.04 6193.40,916.76 6211.48,918.72 6229.65,920.70 6245.33,922.45 6262.70,924.36 6278.09,926.06 6290.89,927.46 6307.83,929.36 6323.91,931.13 6341.06,933.03 6359.37,935.00 6377.22,937.00 6398.11,939.31 6416.61,941.36 6432.74,943.12 6448.20,944.76 6458.70,945.93 6472.23,947.39 6485.13,948.79 6499.84,950.42 6514.14,951.93 6524.47,953.09 6535.97,954.32 6548.66,955.71 6560.23,956.99 6573.71,958.45 6585.29,959.67 6600.78,961.36 6615.18,962.90 6629.09,964.43 6641.53,965.77 6654.34,967.16 6669.10,968.77 6681.56,970.14 6694.46,971.56 6707.46,973.00 6720.67,974.45 6734.06,975.88 6746.69,977.32 6757.27,978.49 6781.28,981.07 6803.05,983.47 6825.92,986.03 6854.26,989.18 6877.98,991.83 6900.52,994.27 6923.54,996.80 6945.52,999.19 6963.49,1001.18 6986.55,1003.68 7008.04,1006.01 7028.99,1008.33 7049.80,1010.58 7070.49,1012.82 7088.09,1014.72 7114.69,1017.59 7137.67,1020.02 7159.11,1022.32 7182.23,1024.80 7205.94,1027.40 7227.04,1029.68 7250.00,1032.21 7270.04,1034.46 7290.42,1036.70 7310.23,1038.86 7330.28,1041.06 7348.50,1043.05 7367.74,1045.20 7389.56,1047.53 7412.12,1050.02 7437.29,1052.77 7465.38,1055.89 7489.34,1058.49 7515.45,1061.32 7539.52,1064.01 7563.84,1066.68 7588.14,1069.39 7614.93,1072.35 7644.93,1075.67 7667.06,1078.12 7690.09,1080.65 7709.64,1082.75 7734.26,1085.44 7758.48,1088.10 7782.05,1090.68 7806.88,1093.39 7828.67,1095.78 7852.52,1098.37 7876.47,1101.02 7901.59,1103.79 7918.83,1105.74 7942.39,1108.30 7965.96,1110.87 7991.69,1113.73 8013.06,1116.07 8034.32,1118.40 8054.97,1120.63 8076.66,1123.06 8100.50,1125.69 8125.38,1128.42 8152.73,1131.42 8183.75,1134.84 8212.68,1138.03 8241.66,1141.20 8266.53,1143.97 8293.02,1146.87 8313.87,1149.14 8343.87,1152.35 8372.83,1155.57 8401.48,1158.63 8428.97,1161.62 8455.94,1164.57 8482.23,1167.51 8508.10,1170.38 8530.86,1172.92 8551.27,1175.17 8577.43,1178.07 8598.76,1180.42 8626.54,1183.46 8654.16,1186.56 8684.40,1189.90 8709.98,1192.75 8746.40,1196.72 8775.52,1199.95 8802.95,1202.94 8832.09,1206.07 8857.07,1208.83 8886.60,1212.04 8916.99,1215.42 8953.75,1219.43 8977.27,1221.96 9005.74,1225.05 9042.83,1229.21 9074.79,1232.71 9109.05,1236.45 9139.77,1239.86 9168.66,1243.04 9201.07,1246.62 9229.06,1249.71 9258.32,1253.00 9285.00,1255.96 9308.72,1258.60 9329.11,1260.85 9351.98,1263.32 9375.98,1265.95 9401.73,1268.82 9425.34,1271.41 9456.20,1274.80 9468.25,1276.09 9498.20,1279.36 9522.20,1281.98 9545.92,1284.54 9573.21,1287.54 9599.53,1290.43 9624.80,1293.21 9652.09,1296.14 9678.14,1299.03 9700.75,1301.57 9729.04,1304.64 9761.16,1308.10 9799.22,1312.26 9831.45,1315.78 9865.01,1319.49 9896.29,1323.01 9928.09,1326.53 9960.60,1330.17 9989.51,1333.35 10012.66,1335.88" type="shoulder"/>