<?xml version='1.0' encoding='utf-8'?>
<edges>
    <edge id="387.0" from="node_387_start" to="node_387_end" numLanes="3" speed="13.89" type="town" shape="656517.02,3282480.03 656518.70,3282480.21 656518.70,3282480.21 656532.79,3282481.71 656532.79,3282481.71 656546.99,3282483.26 656546.99,3282483.26 656560.63,3282484.74 656560.63,3282484.74 656573.35,3282486.10 656573.35,3282486.10 656585.73,3282487.47 656585.73,3282487.47 656599.66,3282488.99 656599.66,3282488.99 656613.20,3282490.48 656613.20,3282490.48 656627.96,3282492.11 656627.96,3282492.11 656641.96,3282493.62 656641.96,3282493.62 656655.76,3282495.15 656655.76,3282495.15 656663.70,3282496.03">
        <lane index="0" width="3.66" type="shoulder" disallow="all" />
        <lane index="1" width="3.66" />
        <lane index="2" width="3.66" />
    </edge>
    <edge id="392.0" from="junction_26" to="node_387_start" numLanes="3" speed="13.89" type="town" shape="654090.60,3282064.93 654102.86,3282066.96 654102.86,3282066.96 654114.00,3282068.86 654114.00,3282068.86 654129.57,3282071.50 654129.57,3282071.50 654144.96,3282074.21 654144.96,3282074.21 654174.35,3282079.37 654174.35,3282079.37 654188.06,3282081.81 654188.06,3282081.81 654205.57,3282084.92 654205.57,3282084.92 654220.60,3282087.64 654220.60,3282087.64 654235.28,3282090.27 654235.28,3282090.27 654249.28,3282092.84 654249.28,3282092.84 654265.79,3282095.84 654265.79,3282095.84 654280.52,3282098.54 654280.52,3282098.54 654297.01,3282101.58 654297.01,3282101.58 654310.55,3282104.11 654310.55,3282104.11 654325.58,3282106.92 654325.58,3282106.92 654339.78,3282109.61 654339.78,3282109.61 654354.09,3282112.28 654354.09,3282112.28 654369.71,3282115.21 654369.71,3282115.21 654386.56,3282118.37 654386.56,3282118.37 654402.36,3282121.28 654402.36,3282121.28 654415.54,3282123.73 654415.54,3282123.73 654429.35,3282126.32 654429.35,3282126.32 654444.39,3282129.08 654444.39,3282129.08 654456.97,3282131.40 654456.97,3282131.40 654470.72,3282133.91 654470.72,3282133.91 654483.08,3282136.24 654483.08,3282136.24 654497.04,3282138.78 654497.04,3282138.78 654506.22,3282140.48 654506.22,3282140.48 654524.60,3282143.90 654524.60,3282143.90 654541.38,3282146.98 654541.38,3282146.98 654565.03,3282151.33 654565.03,3282151.33 654587.49,3282155.47 654587.49,3282155.47 654609.35,3282159.47 654609.35,3282159.47 654632.02,3282163.65 654632.02,3282163.65 654653.95,3282167.68 654653.95,3282167.68 654670.42,3282170.76 654670.42,3282170.76 654689.61,3282174.28 654689.61,3282174.28 654707.42,3282177.61 654707.42,3282177.61 654730.80,3282181.96 654730.80,3282181.96 654751.40,3282185.79 654751.40,3282185.79 654771.31,3282189.50 654771.31,3282189.50 654790.58,3282193.07 654790.58,3282193.07 654810.54,3282196.76 654810.54,3282196.76 654825.86,3282199.62 654825.86,3282199.62 654845.06,3282203.17 654845.06,3282203.17 654863.87,3282206.62 654863.87,3282206.62 654881.72,3282209.94 654881.72,3282209.94 654902.97,3282213.86 654902.97,3282213.86 654928.27,3282218.55 654928.27,3282218.55 654949.45,3282222.46 654949.45,3282222.46 654967.17,3282225.70 654967.17,3282225.70 654988.97,3282229.72 654988.97,3282229.72 655007.93,3282233.21 655007.93,3282233.21 655027.62,3282236.83 655027.62,3282236.83 655046.87,3282240.39 655046.87,3282240.39 655065.76,3282243.91 655065.76,3282243.91 655080.93,3282246.74 655080.93,3282246.74 655099.10,3282250.12 655099.10,3282250.12 655111.93,3282252.47 655111.93,3282252.47 655124.65,3282254.84 655124.65,3282254.84 655140.69,3282257.82 655140.69,3282257.82 655152.63,3282260.05 655152.63,3282260.05 655164.35,3282262.21 655164.35,3282262.21 655177.51,3282264.66 655177.51,3282264.66 655191.18,3282267.18 655191.18,3282267.18 655206.23,3282269.97 655206.23,3282269.97 655219.25,3282272.36 655219.25,3282272.36 655235.03,3282275.31 655235.03,3282275.31 655253.27,3282278.70 655253.27,3282278.70 655273.44,3282282.41 655273.44,3282282.41 655288.24,3282285.17 655288.24,3282285.17 655300.73,3282287.47 655300.73,3282287.47 655315.47,3282290.19 655315.47,3282290.19 655327.94,3282292.48 655327.94,3282292.48 655339.41,3282294.54 655339.41,3282294.54 655350.36,3282296.57 655350.36,3282296.57 655364.45,3282299.17 655364.45,3282299.17 655377.88,3282301.62 655377.88,3282301.62 655390.51,3282303.95 655390.51,3282303.95 655403.14,3282306.30 655403.14,3282306.30 655417.02,3282308.87 655417.02,3282308.87 655428.84,3282311.03 655428.84,3282311.03 655441.36,3282313.32 655441.36,3282313.32 655458.94,3282316.57 655458.94,3282316.57 655472.53,3282319.07 655472.53,3282319.07 655483.75,3282321.16 655483.75,3282321.16 655496.22,3282323.46 655496.22,3282323.46 655509.58,3282325.94 655509.58,3282325.94 655523.12,3282328.46 655523.12,3282328.46 655538.15,3282331.21 655538.15,3282331.21 655551.37,3282333.69 655551.37,3282333.69 655567.79,3282336.75 655567.79,3282336.75 655576.82,3282338.40 655576.82,3282338.40 655589.71,3282340.78 655589.71,3282340.78 655604.17,3282343.46 655604.17,3282343.46 655617.72,3282345.94 655617.72,3282345.94 655629.07,3282348.08 655629.07,3282348.08 655647.80,3282351.50 655647.80,3282351.50 655659.57,3282353.67 655659.57,3282353.67 655673.56,3282356.24 655673.56,3282356.24 655689.37,3282359.15 655689.37,3282359.15 655703.39,3282361.72 655703.39,3282361.72 655717.11,3282364.23 655717.11,3282364.23 655732.99,3282367.19 655732.99,3282367.19 655748.80,3282370.13 655748.80,3282370.13 655763.39,3282372.84 655763.39,3282372.84 655777.32,3282375.41 655777.32,3282375.41 655791.90,3282378.13 655791.90,3282378.13 655806.70,3282380.89 655806.70,3282380.89 655823.12,3282383.92 655823.12,3282383.92 655838.90,3282386.83 655838.90,3282386.83 655854.91,3282389.80 655854.91,3282389.80 655869.86,3282392.53 655869.86,3282392.53 655886.70,3282395.63 655886.70,3282395.63 655898.80,3282397.86 655898.80,3282397.86 655910.65,3282400.02 655910.65,3282400.02 655923.08,3282402.29 655923.08,3282402.29 655933.73,3282404.27 655933.73,3282404.27 655947.84,3282406.90 655947.84,3282406.90 655961.62,3282409.43 655961.62,3282409.43 655982.24,3282413.21 655982.24,3282413.21 656001.81,3282416.73 656001.81,3282416.73 656021.64,3282420.10 656021.64,3282420.10 656042.35,3282423.51 656042.35,3282423.51 656063.42,3282426.73 656063.42,3282426.73 656083.54,3282429.76 656083.54,3282429.76 656102.44,3282432.50 656102.44,3282432.50 656121.95,3282435.30 656121.95,3282435.30 656139.24,3282437.63 656139.24,3282437.63 656157.06,3282439.90 656157.06,3282439.90 656174.16,3282442.06 656174.16,3282442.06 656192.19,3282444.20 656192.19,3282444.20 656207.53,3282446.02 656207.53,3282446.02 656226.50,3282448.16 656226.50,3282448.16 656241.19,3282449.78 656241.19,3282449.78 656259.64,3282451.84 656259.64,3282451.84 656275.74,3282453.59 656275.74,3282453.59 656290.23,3282455.18 656290.23,3282455.18 656304.34,3282456.72 656304.34,3282456.72 656319.21,3282458.37 656319.21,3282458.37 656332.61,3282459.83 656332.61,3282459.83 656349.76,3282461.72 656349.76,3282461.72 656366.81,3282463.58 656366.81,3282463.58 656382.77,3282465.29 656382.77,3282465.29 656393.89,3282466.51 656393.89,3282466.51 656401.15,3282467.33 656401.15,3282467.33 656410.75,3282468.43 656410.75,3282468.43 656420.65,3282469.50 656420.65,3282469.50 656432.48,3282470.82 656432.48,3282470.82 656443.37,3282472.01 656443.37,3282472.01 656452.14,3282472.96 656452.14,3282472.96 656465.28,3282474.36 656465.28,3282474.36 656474.04,3282475.31 656474.04,3282475.31 656484.23,3282476.43 656484.23,3282476.43 656495.94,3282477.68 656495.94,3282477.68 656506.31,3282478.86 656506.31,3282478.86 656517.02,3282480.03">
        <lane index="0" width="3.66" type="shoulder" disallow="all" />
        <lane index="1" width="3.66" />
        <lane index="2" width="3.66" />
    </edge>
    <edge id="393.0" from="node_387_end" to="node_393_end" numLanes="3" speed="13.89" type="town" shape="656663.70,3282496.03 656672.01,3282496.94 656672.01,3282496.94 656689.35,3282498.85 656689.35,3282498.85 656706.33,3282500.72">
        <lane index="0" width="3.66" type="shoulder" disallow="all" />
        <lane index="1" width="3.66" />
        <lane index="2" width="3.66" />
    </edge>
    <edge id="395.0" from="node_395_start" to="junction_83" numLanes="3" speed="13.89" type="town" shape="656863.72,3282517.94 656876.83,3282519.36 656876.83,3282519.36 656890.49,3282520.81 656890.49,3282520.81 656901.12,3282521.98 656901.12,3282521.98 656918.84,3282523.91 656918.84,3282523.91 656935.00,3282525.68 656935.00,3282525.68 656955.79,3282527.97 656955.79,3282527.97 656969.58,3282529.44 656969.58,3282529.44 656983.42,3282530.96 656983.42,3282530.96 656999.81,3282532.72 656999.81,3282532.72 657013.74,3282534.21 657013.74,3282534.21 657026.79,3282535.61 657026.79,3282535.61 657041.05,3282537.16 657041.05,3282537.16 657055.65,3282538.74 657055.65,3282538.74 657068.49,3282540.14 657068.49,3282540.14 657082.68,3282541.69 657082.68,3282541.69 657094.09,3282542.96 657094.09,3282542.96 657106.98,3282544.37 657106.98,3282544.37 657119.08,3282545.73 657119.08,3282545.73 657134.20,3282547.38 657134.20,3282547.38 657146.76,3282548.76 657146.76,3282548.76 657161.28,3282550.36 657161.28,3282550.36 657173.76,3282551.72 657173.76,3282551.72 657185.61,3282553.04 657185.61,3282553.04 657198.10,3282554.45 657198.10,3282554.45 657212.47,3282556.02 657212.47,3282556.02 657226.94,3282557.63 657226.94,3282557.63 657240.82,3282559.17 657240.82,3282559.17 657251.40,3282560.34 657251.40,3282560.34 657263.89,3282561.71 657263.89,3282561.71 657272.90,3282562.69 657272.90,3282562.69 657285.42,3282564.04 657285.42,3282564.04 657292.16,3282564.78 657292.16,3282564.78 657306.64,3282566.36 657306.64,3282566.36 657322.12,3282568.07 657322.12,3282568.07 657335.99,3282569.59 657335.99,3282569.59 657350.67,3282571.20 657350.67,3282571.20 657363.04,3282572.56 657363.04,3282572.56 657374.15,3282573.77 657374.15,3282573.77 657386.07,3282575.10 657386.07,3282575.10 657397.19,3282576.34 657397.19,3282576.34 657407.75,3282577.50 657407.75,3282577.50 657418.90,3282578.69 657418.90,3282578.69 657431.79,3282580.12 657431.79,3282580.12 657446.95,3282581.81 657446.95,3282581.81 657469.00,3282584.27 657469.00,3282584.27 657493.80,3282587.01 657493.80,3282587.01 657518.50,3282589.67 657518.50,3282589.67 657537.96,3282591.79 657537.96,3282591.79 657552.60,3282593.42 657552.60,3282593.42 657569.72,3282595.29 657569.72,3282595.29 657587.02,3282597.14 657587.02,3282597.14 657604.31,3282599.02 657604.31,3282599.02 657624.76,3282601.23 657624.76,3282601.23 657641.79,3282603.07 657641.79,3282603.07 657658.52,3282604.88 657658.52,3282604.88 657674.69,3282606.63 657674.69,3282606.63 657690.42,3282608.40 657690.42,3282608.40 657708.69,3282610.43 657708.69,3282610.43 657724.20,3282612.16 657724.20,3282612.16 657743.24,3282614.22 657743.24,3282614.22 657760.48,3282616.13 657760.48,3282616.13 657777.66,3282618.02 657777.66,3282618.02 657798.48,3282620.26 657798.48,3282620.26 657817.37,3282622.34 657817.37,3282622.34 657839.32,3282624.72 657839.32,3282624.72 657862.20,3282627.23 657862.20,3282627.23 657883.52,3282629.57 657883.52,3282629.57 657903.47,3282631.73 657903.47,3282631.73 657922.78,3282633.87 657922.78,3282633.87 657944.23,3282636.21 657944.23,3282636.21 657967.30,3282638.76 657967.30,3282638.76 657991.25,3282641.36 657991.25,3282641.36 658016.21,3282644.12 658016.21,3282644.12 658038.76,3282646.61 658038.76,3282646.61 658058.82,3282648.86 658058.82,3282648.86 658078.96,3282651.10 658078.96,3282651.10 658101.89,3282653.63 658101.89,3282653.63 658125.87,3282656.25 658125.87,3282656.25 658146.62,3282658.50 658146.62,3282658.50 658169.24,3282660.95 658169.24,3282660.95 658194.44,3282663.71 658194.44,3282663.71 658214.61,3282665.91 658214.61,3282665.91 658231.03,3282667.71 658231.03,3282667.71 658252.55,3282670.08 658252.55,3282670.08 658273.73,3282672.43 658273.73,3282672.43 658297.04,3282674.96 658297.04,3282674.96 658314.18,3282676.87 658314.18,3282676.87 658336.76,3282679.29 658336.76,3282679.29 658357.76,3282681.61 658357.76,3282681.61 658375.64,3282683.56 658375.64,3282683.56 658393.91,3282685.60 658393.91,3282685.60 658405.87,3282686.87 658405.87,3282686.87 658422.23,3282688.69 658422.23,3282688.69 658436.64,3282690.27 658436.64,3282690.27 658454.51,3282692.23 658454.51,3282692.23 658467.66,3282693.66 658467.66,3282693.66 658475.16,3282694.50 658475.16,3282694.50 658493.55,3282696.50 658493.55,3282696.50 658511.78,3282698.53 658511.78,3282698.53 658528.73,3282700.35 658528.73,3282700.35 658543.91,3282702.00 658543.91,3282702.00 658558.03,3282703.53 658558.03,3282703.53 658572.61,3282705.09 658572.61,3282705.09 658584.29,3282706.40 658584.29,3282706.40 658597.01,3282707.82 658597.01,3282707.82 658611.06,3282709.36 658611.06,3282709.36 658622.25,3282710.60 658622.25,3282710.60 658636.49,3282712.16 658636.49,3282712.16 658643.96,3282712.96 658643.96,3282712.96 658650.48,3282713.69 658650.48,3282713.69 658656.90,3282714.36 658656.90,3282714.36 658663.74,3282715.13 658663.74,3282715.13 658670.59,3282715.86 658670.59,3282715.86 658676.16,3282716.50 658676.16,3282716.50 658683.13,3282717.25 658683.13,3282717.25 658689.52,3282717.95 658689.52,3282717.95 658695.93,3282718.64 658695.93,3282718.64 658701.75,3282719.29 658701.75,3282719.29 658709.86,3282720.14 658709.86,3282720.14 658716.18,3282720.83 658716.18,3282720.83 658723.62,3282721.62 658723.62,3282721.62 658728.56,3282722.14 658728.56,3282722.14 658735.75,3282722.92 658735.75,3282722.92 658741.14,3282723.48 658741.14,3282723.48 658747.19,3282724.14 658747.19,3282724.14 658753.77,3282724.85 658753.77,3282724.85 658761.18,3282725.67 658761.18,3282725.67 658767.67,3282726.37 658767.67,3282726.37 658774.11,3282727.06 658774.11,3282727.06 658780.57,3282727.77 658780.57,3282727.77 658787.91,3282728.55 658787.91,3282728.55 658794.17,3282729.24 658794.17,3282729.24 658801.62,3282730.04 658801.62,3282730.04 658807.81,3282730.71 658807.81,3282730.71 658813.29,3282731.32 658813.29,3282731.32 658818.08,3282731.84 658818.08,3282731.84 658825.17,3282732.63 658825.17,3282732.63 658831.45,3282733.33 658831.45,3282733.33 658837.45,3282733.99 658837.45,3282733.99 658843.11,3282734.59 658843.11,3282734.59 658849.17,3282735.28 658849.17,3282735.28 658855.04,3282735.90 658855.04,3282735.90 658860.23,3282736.50 658860.23,3282736.50 658864.18,3282736.91 658864.18,3282736.91 658869.36,3282737.45 658869.36,3282737.45 658874.98,3282738.07 658874.98,3282738.07 658880.68,3282738.72 658880.68,3282738.72 658887.31,3282739.46 658887.31,3282739.46 658891.67,3282739.94 658891.67,3282739.94 658896.74,3282740.51 658896.74,3282740.51 658901.09,3282741.01 658901.09,3282741.01 658906.88,3282741.63 658906.88,3282741.63 658912.01,3282742.18 658912.01,3282742.18 658917.64,3282742.79 658917.64,3282742.79 658922.84,3282743.36 658922.84,3282743.36 658927.61,3282743.88 658927.61,3282743.88 658932.17,3282744.39 658932.17,3282744.39 658936.89,3282744.88 658936.89,3282744.88 658941.86,3282745.45 658941.86,3282745.45 658948.05,3282746.11 658948.05,3282746.11 658955.61,3282746.93 658955.61,3282746.93 658961.22,3282747.57 658961.22,3282747.57 658967.01,3282748.18 658967.01,3282748.18 658972.57,3282748.76 658972.57,3282748.76 658979.67,3282749.54 658979.67,3282749.54 658985.35,3282750.14 658985.35,3282750.14 658992.08,3282750.87 658992.08,3282750.87 659001.60,3282751.92 659001.60,3282751.92 659012.07,3282753.05 659012.07,3282753.05 659019.61,3282753.90 659019.61,3282753.90 659031.44,3282755.19 659031.44,3282755.19 659043.93,3282756.60 659043.93,3282756.60 659053.88,3282757.68 659053.88,3282757.68 659065.05,3282758.92 659065.05,3282758.92 659072.40,3282759.70 659072.40,3282759.70 659080.27,3282760.55 659080.27,3282760.55 659088.93,3282761.48 659088.93,3282761.48 659099.71,3282762.69 659099.71,3282762.69 659108.20,3282763.62 659108.20,3282763.62 659114.88,3282764.35 659114.88,3282764.35 659122.48,3282765.18 659122.48,3282765.18 659126.17,3282765.60 659126.17,3282765.60 659135.61,3282766.62 659135.61,3282766.62 659147.68,3282767.93 659147.68,3282767.93 659157.41,3282769.00 659157.41,3282769.00 659168.76,3282770.24 659168.76,3282770.24 659177.26,3282771.15 659177.26,3282771.15 659187.92,3282772.32 659187.92,3282772.32 659196.43,3282773.26 659196.43,3282773.26 659224.89,3282776.38 659224.89,3282776.38 659247.02,3282778.79 659247.02,3282778.79 659255.89,3282779.76 659255.89,3282779.76 659272.73,3282781.61 659272.73,3282781.61 659285.40,3282783.00 659285.40,3282783.00 659303.10,3282784.93 659303.10,3282784.93 659321.72,3282787.04 659321.72,3282787.04 659336.65,3282788.63 659336.65,3282788.63 659351.37,3282790.27 659351.37,3282790.27 659369.23,3282792.22 659369.23,3282792.22 659386.31,3282794.06 659386.31,3282794.06 659401.62,3282795.75 659401.62,3282795.75 659417.39,3282797.48 659417.39,3282797.48 659436.89,3282799.55 659436.89,3282799.55 659453.61,3282801.41 659453.61,3282801.41 659468.67,3282803.08 659468.67,3282803.08 659485.52,3282804.97 659485.52,3282804.97 659502.43,3282806.84 659502.43,3282806.84 659519.54,3282808.71 659519.54,3282808.71 659536.94,3282810.67 659536.94,3282810.67 659553.70,3282812.54 659553.70,3282812.54 659570.11,3282814.36 659570.11,3282814.36 659587.54,3282816.28 659587.54,3282816.28 659603.59,3282818.01 659603.59,3282818.01 659620.39,3282819.83 659620.39,3282819.83 659639.69,3282821.97 659639.69,3282821.97 659659.21,3282824.08 659659.21,3282824.08 659677.19,3282826.03 659677.19,3282826.03 659698.05,3282828.28 659698.05,3282828.28 659715.27,3282830.20 659715.27,3282830.20 659730.74,3282831.86 659730.74,3282831.86 659748.87,3282833.83 659748.87,3282833.83 659767.21,3282835.84 659767.21,3282835.84 659782.98,3282837.53 659782.98,3282837.53 659798.30,3282839.24 659798.30,3282839.24 659816.39,3282841.21 659816.39,3282841.21 659834.55,3282843.19 659834.55,3282843.19 659850.23,3282844.93 659850.23,3282844.93 659867.60,3282846.84 659867.60,3282846.84 659882.99,3282848.55 659882.99,3282848.55 659895.78,3282849.94 659895.78,3282849.94 659912.72,3282851.84 659912.72,3282851.84 659928.80,3282853.61 659928.80,3282853.61 659945.97,3282855.52 659945.97,3282855.52 659964.27,3282857.49 659964.27,3282857.49 659982.11,3282859.48 659982.11,3282859.48 660003.00,3282861.79 660003.00,3282861.79 660021.51,3282863.84 660021.51,3282863.84 660037.66,3282865.61 660037.66,3282865.61 660053.11,3282867.25 660053.11,3282867.25 660063.60,3282868.42 660063.60,3282868.42 660077.15,3282869.88 660077.15,3282869.88 660090.03,3282871.28 660090.03,3282871.28 660104.76,3282872.91 660104.76,3282872.91 660119.05,3282874.42 660119.05,3282874.42 660129.37,3282875.58 660129.37,3282875.58 660140.88,3282876.81 660140.88,3282876.81 660153.56,3282878.20 660153.56,3282878.20 660165.14,3282879.48 660165.14,3282879.48 660178.64,3282880.94 660178.64,3282880.94 660190.21,3282882.16 660190.21,3282882.16 660205.70,3282883.85 660205.70,3282883.85 660220.09,3282885.39 660220.09,3282885.39 660234.00,3282886.92 660234.00,3282886.92 660246.45,3282888.26 660246.45,3282888.26 660259.25,3282889.65 660259.25,3282889.65 660274.00,3282891.26 660274.00,3282891.26 660286.46,3282892.63 660286.46,3282892.63 660299.36,3282894.05 660299.36,3282894.05 660312.36,3282895.48 660312.36,3282895.48 660325.58,3282896.94 660325.58,3282896.94 660338.96,3282898.37 660338.96,3282898.37 660351.57,3282899.80 660351.57,3282899.80 660362.18,3282900.98 660362.18,3282900.98 660386.19,3282903.56 660386.19,3282903.56 660407.94,3282905.95 660407.94,3282905.95 660430.81,3282908.51 660430.81,3282908.51 660459.15,3282911.66 660459.15,3282911.66 660482.88,3282914.31 660482.88,3282914.31 660505.43,3282916.76 660505.43,3282916.76 660528.45,3282919.29 660528.45,3282919.29 660550.42,3282921.68 660550.42,3282921.68 660568.39,3282923.67 660568.39,3282923.67 660591.46,3282926.17 660591.46,3282926.17 660612.94,3282928.50 660612.94,3282928.50 660633.90,3282930.82 660633.90,3282930.82 660654.72,3282933.07 660654.72,3282933.07 660675.41,3282935.31 660675.41,3282935.31 660693.01,3282937.21 660693.01,3282937.21 660719.62,3282940.08 660719.62,3282940.08 660742.60,3282942.51 660742.60,3282942.51 660764.03,3282944.81 660764.03,3282944.81 660787.14,3282947.29 660787.14,3282947.29 660810.85,3282949.89 660810.85,3282949.89 660831.95,3282952.17 660831.95,3282952.17 660854.89,3282954.69 660854.89,3282954.69 660874.93,3282956.94 660874.93,3282956.94 660895.32,3282959.19 660895.32,3282959.19 660915.14,3282961.35 660915.14,3282961.35 660935.19,3282963.55 660935.19,3282963.55 660953.39,3282965.53 660953.39,3282965.53 660972.64,3282967.69 660972.64,3282967.69 660994.47,3282970.02 660994.47,3282970.02 661017.02,3282972.51 661017.02,3282972.51 661042.19,3282975.25 661042.19,3282975.25 661070.28,3282978.38 661070.28,3282978.38 661094.25,3282980.98 661094.25,3282980.98 661120.35,3282983.81 661120.35,3282983.81 661144.41,3282986.49 661144.41,3282986.49 661168.73,3282989.16 661168.73,3282989.16 661193.03,3282991.87 661193.03,3282991.87 661219.82,3282994.83 661219.82,3282994.83 661249.82,3282998.15 661249.82,3282998.15 661271.96,3283000.60 661271.96,3283000.60 661295.00,3283003.14 661295.00,3283003.14 661314.55,3283005.24 661314.55,3283005.24 661339.16,3283007.93 661339.16,3283007.93 661363.38,3283010.59 661363.38,3283010.59 661386.96,3283013.17 661386.96,3283013.17 661411.78,3283015.88 661411.78,3283015.88 661433.58,3283018.27 661433.58,3283018.27 661457.42,3283020.86 661457.42,3283020.86 661481.37,3283023.50 661481.37,3283023.50 661506.48,3283026.27 661506.48,3283026.27 661523.72,3283028.22 661523.72,3283028.22 661547.30,3283030.79 661547.30,3283030.79 661570.86,3283033.36 661570.86,3283033.36 661596.59,3283036.21 661596.59,3283036.21 661617.96,3283038.56 661617.96,3283038.56 661639.23,3283040.89 661639.23,3283040.89 661659.87,3283043.12 661659.87,3283043.12 661681.55,3283045.54 661681.55,3283045.54 661705.40,3283048.17 661705.40,3283048.17 661730.28,3283050.91 661730.28,3283050.91 661757.63,3283053.91 661757.63,3283053.91 661788.65,3283057.32 661788.65,3283057.32 661817.58,3283060.52 661817.58,3283060.52 661846.56,3283063.69 661846.56,3283063.69 661871.43,3283066.45 661871.43,3283066.45 661897.93,3283069.36 661897.93,3283069.36 661918.79,3283071.63 661918.79,3283071.63 661948.78,3283074.84 661948.78,3283074.84 661977.74,3283078.06 661977.74,3283078.06 662006.40,3283081.12 662006.40,3283081.12 662033.88,3283084.11 662033.88,3283084.11 662060.84,3283087.05 662060.84,3283087.05 662087.12,3283089.99 662087.12,3283089.99 662112.99,3283092.86 662112.99,3283092.86 662135.75,3283095.40 662135.75,3283095.40 662156.16,3283097.65 662156.16,3283097.65 662182.32,3283100.55 662182.32,3283100.55 662203.66,3283102.91 662203.66,3283102.91 662231.43,3283105.94 662231.43,3283105.94 662259.05,3283109.04 662259.05,3283109.04 662289.29,3283112.38 662289.29,3283112.38 662314.88,3283115.23 662314.88,3283115.23 662351.30,3283119.21 662351.30,3283119.21 662380.42,3283122.44 662380.42,3283122.44 662407.87,3283125.43 662407.87,3283125.43 662437.00,3283128.56 662437.00,3283128.56 662461.97,3283131.32 662461.97,3283131.32 662491.50,3283134.53 662491.50,3283134.53 662521.89,3283137.91 662521.89,3283137.91 662558.66,3283141.92 662558.66,3283141.92 662582.19,3283144.45 662582.19,3283144.45 662610.64,3283147.53 662610.64,3283147.53 662647.72,3283151.69 662647.72,3283151.69 662679.69,3283155.20 662679.69,3283155.20 662713.95,3283158.94 662713.95,3283158.94 662744.67,3283162.34 662744.67,3283162.34 662773.56,3283165.52 662773.56,3283165.52 662805.97,3283169.10 662805.97,3283169.10 662833.95,3283172.19 662833.95,3283172.19 662863.20,3283175.48 662863.20,3283175.48 662889.89,3283178.44 662889.89,3283178.44 662913.61,3283181.08 662913.61,3283181.08 662934.02,3283183.34 662934.02,3283183.34 662956.89,3283185.81 662956.89,3283185.81 662980.88,3283188.43 662980.88,3283188.43 663006.62,3283191.30 663006.62,3283191.30 663030.24,3283193.90 663030.24,3283193.90 663061.11,3283197.29 663061.11,3283197.29 663073.16,3283198.58 663073.16,3283198.58 663103.11,3283201.85 663103.11,3283201.85 663127.11,3283204.47 663127.11,3283204.47 663150.83,3283207.03 663150.83,3283207.03 663178.11,3283210.03 663178.11,3283210.03 663204.43,3283212.92 663204.43,3283212.92 663229.71,3283215.70 663229.71,3283215.70 663257.00,3283218.63 663257.00,3283218.63 663283.03,3283221.51 663283.03,3283221.51 663305.64,3283224.05 663305.64,3283224.05 663333.96,3283227.13 663333.96,3283227.13 663366.07,3283230.59 663366.07,3283230.59 663404.13,3283234.75 663404.13,3283234.75 663436.35,3283238.27 663436.35,3283238.27 663469.90,3283241.97 663469.90,3283241.97 663501.18,3283245.49 663501.18,3283245.49 663532.98,3283249.01 663532.98,3283249.01 663565.49,3283252.65 663565.49,3283252.65 663594.41,3283255.84 663594.41,3283255.84 663617.57,3283258.37">
        <lane index="0" width="3.66" type="shoulder" disallow="all" />
        <lane index="1" width="3.66" />
        <lane index="2" width="3.66" />
    </edge>
    <edge id="401.0" from="node_393_end" to="node_395_start" numLanes="3" speed="13.89" type="town" shape="656706.33,3282500.72 656708.64,3282500.97 656708.64,3282500.97 656725.96,3282502.87 656725.96,3282502.87 656741.83,3282504.64 656741.83,3282504.64 656757.63,3282506.37 656757.63,3282506.37 656769.99,3282507.72 656769.99,3282507.72 656782.22,3282509.06 656782.22,3282509.06 656799.45,3282510.95 656799.45,3282510.95 656816.30,3282512.83 656816.30,3282512.83 656830.52,3282514.36 656830.52,3282514.36 656846.30,3282516.07 656846.30,3282516.07 656861.21,3282517.67 656861.21,3282517.67 656863.72,3282517.94">
        <lane index="0" width="3.66" type="shoulder" disallow="all" />
        <lane index="1" width="3.66" />
        <lane index="2" width="3.66" />
    </edge>
    <edge id="402.0" from="node_402_start" to="junction_26" numLanes="1" speed="13.89" type="town" shape="653605.90,3281913.39 653653.11,3281925.18 653653.11,3281925.18 653729.80,3281951.73 653729.80,3281951.73 653817.02,3281988.41 653817.02,3281988.41 653841.28,3281998.54 653841.28,3281998.54 653860.10,3282005.98 653860.10,3282005.98 653873.69,3282010.97 653873.69,3282010.97 653891.10,3282016.36 653891.10,3282016.36 653911.54,3282022.48 653911.54,3282022.48 653941.58,3282031.16 653941.58,3282031.16 653955.79,3282035.00 653955.79,3282035.00 653965.90,3282037.61 653965.90,3282037.61 653975.07,3282039.88">
        <lane index="0" width="3.66" />
    </edge>
</edges>