<?xml version='1.0' encoding='utf-8'?>
<edges>
    <edge id="625.0" from="node_625_start" to="junction_109" numLanes="3" speed="13.89" type="town" shape="587981.20,3267549.36 587956.81,3267541.81 587956.81,3267541.81 587908.54,3267526.85 587908.54,3267526.85 587847.18,3267507.87 587847.18,3267507.87 587785.75,3267488.68 587785.75,3267488.68 587737.02,3267473.40 587737.02,3267473.40 587687.69,3267458.06 587687.69,3267458.06 587641.67,3267443.84 587641.67,3267443.84 587595.56,3267429.55 587595.56,3267429.55 587560.21,3267418.63 587560.21,3267418.63 587486.73,3267395.84 587486.73,3267395.84 587444.47,3267382.71 587444.47,3267382.71 587386.75,3267364.87 587386.75,3267364.87 587352.05,3267354.19 587352.05,3267354.19 587305.70,3267339.90 587305.70,3267339.90 587235.92,3267318.36 587235.92,3267318.36 587166.49,3267297.06 587166.49,3267297.06 587119.48,3267282.55 587119.48,3267282.55 587061.14,3267264.55 587061.14,3267264.55 587015.00,3267250.24 587015.00,3267250.24 586980.56,3267239.65 586980.56,3267239.65 586934.33,3267225.24 586934.33,3267225.24 586864.58,3267203.88 586864.58,3267203.88 586783.73,3267178.61 586783.73,3267178.61 586723.01,3267159.71 586723.01,3267159.71 586661.61,3267140.61 586661.61,3267140.61 586625.26,3267129.59 586625.26,3267129.59 586601.12,3267122.12 586601.12,3267122.12 586564.06,3267110.71 586564.06,3267110.71 586528.49,3267099.74 586528.49,3267099.74 586481.20,3267085.19 586481.20,3267085.19 586446.41,3267074.26 586446.41,3267074.26 586400.10,3267059.90 586400.10,3267059.90 586353.94,3267045.71">
        <lane index="0" width="3.66" type="shoulder" disallow="all" />
        <lane index="1" width="3.66" />
        <lane index="2" width="3.66" />
    </edge>
    <edge id="626.0" from="junction_109" to="node_626_end" numLanes="2" speed="13.89" type="town" shape="586227.55,3267006.50 586214.18,3267002.31 586214.18,3267002.31 586197.78,3266997.21">
        <lane index="0" width="3.66" />
        <lane index="1" width="3.66" />
    </edge>
    <edge id="628.0" from="node_628_start" to="junction_49" numLanes="1" speed="13.89" type="town" shape="585869.95,3266897.28 585860.75,3266888.08 585860.75,3266888.08 585855.64,3266884.29 585855.64,3266884.29 585854.42,3266883.40 585854.42,3266883.40 585848.54,3266879.75 585848.54,3266879.75 585842.94,3266876.46 585842.94,3266876.46 585837.41,3266873.28 585837.41,3266873.28 585829.00,3266868.56">
        <lane index="0" width="3.66" />
    </edge>
    <edge id="633.0" from="node_626_end" to="junction_49" numLanes="3" speed="13.89" type="town" shape="586197.78,3266997.21 586179.52,3266991.55 586179.52,3266991.55 586144.59,3266980.78 586144.59,3266980.78 586098.08,3266966.07 586098.08,3266966.07 586052.26,3266951.03 586052.26,3266951.03 586029.12,3266942.82 586029.12,3266942.82 586006.26,3266934.11 586006.26,3266934.11 585983.94,3266925.00 585983.94,3266925.00 585961.67,3266915.40 585961.67,3266915.40 585939.68,3266905.84 585939.68,3266905.84 585916.94,3266895.91 585916.94,3266895.91 585893.32,3266885.70 585893.32,3266885.70 585850.71,3266867.04 585850.71,3266867.04 585832.79,3266859.15">
        <lane index="0" width="3.66" type="shoulder" disallow="all" />
        <lane index="1" width="3.66" />
        <lane index="2" width="3.66" />
    </edge>
    <edge id="643.0" from="junction_109" to="node_643_end" numLanes="1" speed="13.89" type="town" shape="586225.65,3267013.28 586194.57,3267006.78">
        <lane index="0" width="3.66" />
    </edge>
    <edge id="647.0" from="node_643_end" to="node_647_end" numLanes="1" speed="13.89" type="town" shape="586194.57,3267006.78 586183.64,3267004.45 586183.64,3267004.45 586173.72,3267002.52 586173.72,3267002.52 586165.91,3267001.34 586165.91,3267001.34 586155.55,3267000.41 586155.55,3267000.41 586150.89,3267000.45">
        <lane index="0" width="3.66" />
    </edge>
    <edge id="649.0" from="node_649_start" to="node_649_end" numLanes="3" speed="13.89" type="town" shape="585633.53,3266772.14 585625.79,3266768.74 585625.79,3266768.74 585617.52,3266765.05 585617.52,3266765.05 585607.87,3266760.80 585607.87,3266760.80 585596.16,3266755.62 585596.16,3266755.62 585585.07,3266750.65 585585.07,3266750.65 585576.66,3266746.93 585576.66,3266746.93 585565.18,3266741.78 585565.18,3266741.78 585556.07,3266737.72 585556.07,3266737.72 585546.27,3266733.39 585546.27,3266733.39 585538.91,3266730.12 585538.91,3266730.12 585530.10,3266726.24 585530.10,3266726.24 585520.00,3266721.77 585520.00,3266721.77 585512.38,3266718.44 585512.38,3266718.44 585502.41,3266714.03 585502.41,3266714.03 585492.52,3266709.69 585492.52,3266709.69 585481.69,3266704.92 585481.69,3266704.92 585469.79,3266699.72 585469.79,3266699.72 585454.16,3266692.92 585454.16,3266692.92 585444.28,3266688.60 585444.28,3266688.60 585435.14,3266684.59 585435.14,3266684.59 585425.83,3266680.48 585425.83,3266680.48 585418.28,3266677.13 585418.28,3266677.13 585410.37,3266673.66 585410.37,3266673.66 585400.99,3266669.51 585400.99,3266669.51 585392.90,3266665.89 585392.90,3266665.89 585387.97,3266663.71">
        <lane index="0" width="3.66" type="shoulder" disallow="all" />
        <lane index="1" width="3.66" />
        <lane index="2" width="3.66" />
    </edge>
    <edge id="651.0" from="node_651_start" to="node_651_end" numLanes="3" speed="13.89" type="town" shape="585185.80,3266574.27 585171.42,3266567.87 585171.42,3266567.87 585158.63,3266562.28 585158.63,3266562.28 585146.20,3266556.66 585146.20,3266556.66 585128.68,3266548.91 585128.68,3266548.91 585111.92,3266541.42 585111.92,3266541.42 585094.67,3266533.80 585094.67,3266533.80 585079.06,3266526.96 585079.06,3266526.96 585066.09,3266521.36 585066.09,3266521.36 585053.18,3266515.69 585053.18,3266515.69 585040.65,3266510.13 585040.65,3266510.13 585028.11,3266504.65 585028.11,3266504.65 585009.84,3266496.56 585009.84,3266496.56 585007.75,3266495.62">
        <lane index="0" width="3.66" type="shoulder" disallow="all" />
        <lane index="1" width="3.66" />
        <lane index="2" width="3.66" />
    </edge>
    <edge id="652.0" from="node_649_end" to="junction_111" numLanes="2" speed="13.89" type="town" shape="585387.97,3266663.71 585377.31,3266658.99 585377.31,3266658.99 585371.96,3266656.61 585371.96,3266656.61 585368.32,3266654.97 585368.32,3266654.97 585365.71,3266653.83">
        <lane index="0" width="3.66" />
        <lane index="1" width="3.66" />
    </edge>
    <edge id="653.0" from="node_651_end" to="node_653_end" numLanes="3" speed="13.89" type="town" shape="585007.75,3266495.62 584996.86,3266490.79 584996.86,3266490.79 584984.31,3266485.23 584984.31,3266485.23 584968.49,3266478.31 584968.49,3266478.31 584959.65,3266474.41">
        <lane index="0" width="3.66" type="shoulder" disallow="all" />
        <lane index="1" width="3.66" />
        <lane index="2" width="3.66" />
    </edge>
    <edge id="654.0" from="node_654_start" to="node_649_start" numLanes="2" speed="13.89" type="town" shape="585715.56,3266807.97 585714.42,3266807.47 585714.42,3266807.47 585703.24,3266802.58 585703.24,3266802.58 585691.02,3266797.27 585691.02,3266797.27 585676.48,3266790.94 585676.48,3266790.94 585663.16,3266785.15 585663.16,3266785.15 585654.01,3266781.19 585654.01,3266781.19 585642.79,3266776.22 585642.79,3266776.22 585633.53,3266772.14">
        <lane index="0" width="3.66" />
        <lane index="1" width="3.66" />
    </edge>
    <edge id="655.0" from="junction_49" to="node_654_start" numLanes="3" speed="13.89" type="town" shape="585796.39,3266843.33 585785.14,3266838.48 585785.14,3266838.48 585778.10,3266835.43 585778.10,3266835.43 585768.57,3266831.29 585768.57,3266831.29 585759.41,3266827.27 585759.41,3266827.27 585750.51,3266823.38 585750.51,3266823.38 585744.88,3266820.91 585744.88,3266820.91 585735.55,3266816.77 585735.55,3266816.77 585724.82,3266812.05 585724.82,3266812.05 585715.56,3266807.97">
        <lane index="0" width="3.66" />
        <lane index="1" width="3.66" />
        <lane index="2" width="3.66" />
    </edge>
    <edge id="656.0" from="node_654_start" to="node_649_start" numLanes="1" speed="13.89" type="town" shape="585712.96,3266814.75 585632.09,3266775.49">
        <lane index="0" width="3.66" />
    </edge>
    <edge id="657.0" from="junction_111" to="node_657_end" numLanes="1" speed="13.89" type="town" shape="585240.99,3266606.11 585234.11,3266603.63 585234.11,3266603.63 585226.80,3266600.94 585226.80,3266600.94 585212.52,3266595.77 585212.52,3266595.77 585194.09,3266589.29 585194.09,3266589.29 585187.81,3266587.09 585187.81,3266587.09 585180.65,3266584.55">
        <lane index="0" width="3.66" />
    </edge>
    <edge id="661.0" from="junction_111" to="node_651_start" numLanes="2" speed="13.89" type="town" shape="585244.09,3266599.86 585234.54,3266595.66 585234.54,3266595.66 585223.06,3266590.59 585223.06,3266590.59 585209.57,3266584.65 585209.57,3266584.65 585199.81,3266580.33 585199.81,3266580.33 585185.80,3266574.27">
        <lane index="0" width="3.66" />
        <lane index="1" width="3.66" />
    </edge>
    <edge id="662.0" from="node_657_end" to="node_662_end" numLanes="1" speed="13.89" type="town" shape="585180.65,3266584.55 585178.32,3266583.72 585178.32,3266583.72 585165.22,3266579.06 585165.22,3266579.06 585151.86,3266574.26 585151.86,3266574.26 585137.73,3266569.06">
        <lane index="0" width="3.66" />
    </edge>
    <edge id="865.0" from="node_865_start" to="junction_59" numLanes="3" speed="13.89" type="town" shape="584495.07,3266270.24 584492.52,3266269.14 584492.52,3266269.14 584473.68,3266260.70 584473.68,3266260.70 584443.66,3266247.45 584443.66,3266247.45 584410.76,3266232.91 584410.76,3266232.91 584374.79,3266217.13 584374.79,3266217.13 584340.07,3266201.77 584340.07,3266201.77 584309.12,3266188.16 584309.12,3266188.16 584267.92,3266169.95 584267.92,3266169.95 584230.69,3266153.59 584230.69,3266153.59 584194.20,3266137.43 584194.20,3266137.43 584167.07,3266125.49 584167.07,3266125.49 584146.82,3266116.62 584146.82,3266116.62 584125.53,3266107.26 584125.53,3266107.26 584109.88,3266100.29 584109.88,3266100.29 584085.26,3266089.43 584085.26,3266089.43 584066.74,3266081.28 584066.74,3266081.28 584049.58,3266073.68 584049.58,3266073.68 584035.53,3266067.50 584035.53,3266067.50 584020.25,3266060.78 584020.25,3266060.78 584002.77,3266053.06 584002.77,3266053.06 583989.38,3266047.22">
        <lane index="0" width="3.66" />
        <lane index="1" width="3.66" />
        <lane index="2" width="3.66" />
    </edge>
    <edge id="866.0" from="node_653_end" to="node_866_end" numLanes="2" speed="13.89" type="town" shape="584959.65,3266474.41 584939.41,3266465.42 584939.41,3266465.42 584912.78,3266453.67 584912.78,3266453.67 584899.51,3266447.86 584899.51,3266447.86 584887.55,3266442.60 584887.55,3266442.60 584870.92,3266435.04 584870.92,3266435.04 584846.28,3266424.23 584846.28,3266424.23 584825.41,3266415.10 584825.41,3266415.10 584811.50,3266408.93 584811.50,3266408.93 584798.84,3266403.36 584798.84,3266403.36 584784.02,3266396.78 584784.02,3266396.78 584763.30,3266387.65 584763.30,3266387.65 584755.67,3266384.29">
        <lane index="0" width="3.66" />
        <lane index="1" width="3.66" />
    </edge>
    <edge id="867.0" from="node_866_end" to="node_865_start" numLanes="2" speed="13.89" type="town" shape="584755.67,3266384.29 584736.37,3266375.77 584736.37,3266375.77 584717.06,3266367.28 584717.06,3266367.28 584695.51,3266357.75 584695.51,3266357.75 584676.68,3266349.50 584676.68,3266349.50 584646.84,3266336.29 584646.84,3266336.29 584623.74,3266326.08 584623.74,3266326.08 584599.39,3266315.32 584599.39,3266315.32 584575.92,3266305.09 584575.92,3266305.09 584539.77,3266289.42 584539.77,3266289.42 584510.81,3266277.05 584510.81,3266277.05 584495.07,3266270.24">
        <lane index="0" width="3.66" />
        <lane index="1" width="3.66" />
    </edge>
    <edge id="868.0" from="node_866_end" to="node_865_start" numLanes="1" speed="13.89" type="town" shape="584754.22,3266387.53 584725.10,3266375.20 584725.10,3266375.20 584696.03,3266362.78 584696.03,3266362.78 584666.93,3266350.43 584666.93,3266350.43 584637.54,3266337.85 584637.54,3266337.85 584608.50,3266325.52 584608.50,3266325.52 584579.54,3266313.53 584579.54,3266313.53 584550.37,3266301.31 584550.37,3266301.31 584521.20,3266289.10 584521.20,3266289.10 584492.04,3266276.87">
        <lane index="0" width="3.66" />
    </edge>
    <edge id="869.0" from="node_869_start" to="junction_59" numLanes="1" speed="13.89" type="town" shape="584101.67,3266114.53 584065.35,3266098.17 584065.35,3266098.17 584028.10,3266080.77">
        <lane index="0" width="3.66" />
    </edge>
    <edge id="873.0" from="junction_59" to="node_873_end" numLanes="4" speed="13.89" type="town" shape="583941.54,3266026.10 583921.39,3266017.15 583921.39,3266017.15 583901.17,3266008.23 583901.17,3266008.23 583876.40,3265997.33 583876.40,3265997.33 583849.15,3265985.28 583849.15,3265985.28 583828.75,3265976.32">
        <lane index="0" width="3.66" />
        <lane index="1" width="3.66" />
        <lane index="2" width="3.66" />
        <lane index="3" width="3.66" />
    </edge>
</edges>