<?xml version="1.0" encoding="UTF-8"?>

<!-- generated on 2025-10-19 17:33:41 by Eclipse SUMO netconvert Version 1.23.1
<netconvertConfiguration xmlns:xsi="http://www.w3.org/2001/XMLSchema-instance" xsi:noNamespaceSchemaLocation="http://sumo.dlr.de/xsd/netconvertConfiguration.xsd">

    <input>
        <node-files value="/home/sdai/harry/TeraSim/jupiter/wb/jupiter_wb_tiles/tile_0013/tile_0013.nod.xml"/>
        <edge-files value="/home/sdai/harry/TeraSim/jupiter/wb/jupiter_wb_tiles/tile_0013/tile_0013.edg.xml"/>
        <connection-files value="/home/sdai/harry/TeraSim/jupiter/wb/jupiter_wb_tiles/tile_0013/tile_0013.con.xml"/>
    </input>

    <output>
        <output-file value="/home/sdai/harry/TeraSim/jupiter/wb/jupiter_wb_tiles/tile_0013/tile_0013.net.xml"/>
        <output.street-names value="true"/>
        <output.original-names value="true"/>
    </output>

    <processing>
        <geometry.remove value="false"/>
        <geometry.min-dist value="0.5"/>
        <edges.join value="false"/>
    </processing>

    <junctions>
        <no-internal-links value="false"/>
        <no-turnarounds value="true"/>
        <junctions.join value="true"/>
        <junctions.join-dist value="10"/>
        <junctions.corner-detail value="5"/>
        <junctions.internal-link-detail value="5"/>
        <junctions.limit-turn-speed value="5.5"/>
        <rectangular-lane-cut value="true"/>
        <check-lane-foes.all value="true"/>
    </junctions>

</netconvertConfiguration>
-->

<net version="1.20" junctionCornerDetail="5" junctionLinkDetail="5" rectangularLaneCut="true" limitTurnSpeed="5.50" checkLaneFoesAll="1" xmlns:xsi="http://www.w3.org/2001/XMLSchema-instance" xsi:noNamespaceSchemaLocation="http://sumo.dlr.de/xsd/net_file.xsd">

    <location netOffset="-583828.75,-3265976.32" convBoundary="0.00,0.00,4152.45,1573.04" origBoundary="0.00,0.00,587981.20,3267549.36" projParameter="!"/>

    <edge id=":junction_109_0" function="internal">
        <lane id=":junction_109_0_0" index="0" speed="13.89" length="138.91" width="3.66" shape="2523.58,1074.64 2497.31,1067.09 2453.14,1054.72 2410.73,1042.98 2389.78,1037.34"/>
    </edge>
    <edge id=":junction_109_1" function="internal">
        <lane id=":junction_109_1_0" index="0" speed="13.89" length="139.02" width="3.66" shape="2523.58,1074.64 2390.80,1033.42"/>
        <lane id=":junction_109_1_1" index="1" speed="13.89" length="139.02" width="3.66" shape="2524.65,1071.14 2391.89,1029.93"/>
    </edge>
    <edge id=":junction_111_0" function="internal">
        <lane id=":junction_111_0_0" index="0" speed="13.89" length="142.44" width="3.66" shape="1534.76,682.54 1403.02,628.40"/>
    </edge>
    <edge id=":junction_111_1" function="internal">
        <lane id=":junction_111_1_0" index="0" speed="13.89" length="142.51" width="3.66" shape="1534.76,682.54 1404.49,624.76"/>
        <lane id=":junction_111_1_1" index="1" speed="13.89" length="142.51" width="3.66" shape="1536.23,679.19 1405.96,621.41"/>
    </edge>
    <edge id=":junction_49_0" function="internal">
        <lane id=":junction_49_0_0" index="0" speed="13.89" length="39.87" width="3.66" shape="1999.36,893.84 1993.93,890.76 1985.22,885.93 1974.74,880.45 1964.02,875.41"/>
    </edge>
    <edge id=":junction_49_1" function="internal">
        <lane id=":junction_49_1_0" index="0" speed="13.89" length="39.66" width="3.66" shape="2001.83,887.85 1965.47,872.05"/>
        <lane id=":junction_49_1_1" index="1" speed="13.89" length="39.66" width="3.66" shape="2003.30,884.50 1966.92,868.69"/>
    </edge>
    <edge id=":junction_59_0" function="internal">
        <lane id=":junction_59_0_0" index="0" speed="13.89" length="52.72" width="3.66" shape="154.34,85.44 107.59,61.49"/>
        <lane id=":junction_59_0_1" index="1" speed="13.89" length="52.72" width="3.66" shape="154.34,85.44 147.93,81.43 136.86,74.04 123.22,65.54 109.08,58.14"/>
    </edge>
    <edge id=":junction_59_2" function="internal">
        <lane id=":junction_59_2_0" index="0" speed="13.89" length="52.33" width="3.66" shape="156.97,79.29 109.08,58.14"/>
        <lane id=":junction_59_2_1" index="1" speed="13.89" length="52.33" width="3.66" shape="158.44,75.93 110.56,54.80"/>
        <lane id=":junction_59_2_2" index="2" speed="13.89" length="52.33" width="3.66" shape="159.90,72.58 112.05,51.45"/>
    </edge>
    <edge id=":node_626_end_0" function="internal">
        <lane id=":node_626_end_0_0" index="0" speed="13.89" length="3.00" width="3.66" shape="2368.84,1026.58 2365.97,1025.69"/>
        <lane id=":node_626_end_0_1" index="1" speed="13.89" length="3.00" width="3.66" shape="2369.92,1023.08 2367.06,1022.19"/>
    </edge>
    <edge id=":node_643_end_0" function="internal">
        <lane id=":node_643_end_0_0" index="0" speed="13.89" length="0.30" width="3.66" shape="2365.59,1032.28 2365.30,1032.22"/>
    </edge>
    <edge id=":node_649_end_0" function="internal">
        <lane id=":node_649_end_0_0" index="0" speed="13.89" length="3.00" width="3.66" shape="1558.37,693.02 1555.63,691.80"/>
        <lane id=":node_649_end_0_1" index="1" speed="13.89" length="3.00" width="3.66" shape="1559.85,689.67 1557.11,688.46"/>
    </edge>
    <edge id=":node_649_start_0" function="internal">
        <lane id=":node_649_start_0_0" index="0" speed="13.89" length="8.06" width="3.66" shape="1806.25,802.62 1798.93,799.24"/>
    </edge>
    <edge id=":node_649_start_1" function="internal">
        <lane id=":node_649_start_1_0" index="0" speed="13.89" length="8.00" width="3.66" shape="1806.24,802.46 1798.93,799.24"/>
        <lane id=":node_649_start_1_1" index="1" speed="13.89" length="8.00" width="3.66" shape="1807.72,799.11 1800.40,795.89"/>
    </edge>
    <edge id=":node_651_end_0" function="internal">
        <lane id=":node_651_end_0_0" index="0" speed="13.89" length="0.30" width="3.66" shape="1176.90,524.37 1176.63,524.25"/>
        <lane id=":node_651_end_0_1" index="1" speed="13.89" length="0.30" width="3.66" shape="1178.40,521.03 1178.12,520.91"/>
    </edge>
    <edge id=":node_651_start_0" function="internal">
        <lane id=":node_651_start_0_0" index="0" speed="13.89" length="2.99" width="3.66" shape="1356.23,603.58 1353.47,602.36"/>
        <lane id=":node_651_start_0_1" index="1" speed="13.89" length="2.99" width="3.66" shape="1357.68,600.22 1354.96,599.02"/>
    </edge>
    <edge id=":node_653_end_0" function="internal">
        <lane id=":node_653_end_0_0" index="0" speed="13.89" length="3.00" width="3.66" shape="1130.05,503.72 1127.31,502.50"/>
        <lane id=":node_653_end_0_1" index="1" speed="13.89" length="3.00" width="3.66" shape="1131.53,500.37 1128.79,499.16"/>
    </edge>
    <edge id=":node_654_start_0" function="internal">
        <lane id=":node_654_start_0_0" index="0" speed="13.89" length="3.35" width="3.66" shape="1884.67,840.71 1881.67,839.23"/>
    </edge>
    <edge id=":node_654_start_1" function="internal">
        <lane id=":node_654_start_1_0" index="0" speed="13.89" length="3.00" width="3.66" shape="1886.15,837.36 1883.41,836.15"/>
        <lane id=":node_654_start_1_1" index="1" speed="13.89" length="3.00" width="3.66" shape="1887.62,834.01 1884.87,832.80"/>
    </edge>
    <edge id=":node_657_end_0" function="internal">
        <lane id=":node_657_end_0_0" index="0" speed="13.89" length="0.30" width="3.66" shape="1351.43,610.00 1351.15,609.90"/>
    </edge>
    <edge id=":node_865_start_0" function="internal">
        <lane id=":node_865_start_0_0" index="0" speed="13.89" length="4.77" width="3.66" shape="665.58,299.58 661.32,301.73"/>
        <lane id=":node_865_start_0_1" index="1" speed="13.89" length="4.77" width="3.66" shape="667.03,296.22 662.77,298.37"/>
    </edge>
    <edge id=":node_865_start_2" function="internal">
        <lane id=":node_865_start_2_0" index="0" speed="13.89" length="7.88" width="3.66" shape="664.12,302.88 664.22,295.01"/>
    </edge>
    <edge id=":node_866_end_0" function="internal">
        <lane id=":node_866_end_0_0" index="0" speed="13.89" length="7.97" width="3.66" shape="928.36,414.60 921.09,411.34"/>
    </edge>
    <edge id=":node_866_end_1" function="internal">
        <lane id=":node_866_end_1_0" index="0" speed="13.89" length="8.05" width="3.66" shape="928.36,414.60 920.99,411.35"/>
        <lane id=":node_866_end_1_1" index="1" speed="13.89" length="8.05" width="3.66" shape="929.83,411.25 922.47,408.00"/>
    </edge>

    <edge id="625.0" from="node_625_start" to="junction_109" priority="-1" type="town" shape="4152.45,1573.04 4128.06,1565.49 4079.79,1550.53 4018.43,1531.55 3957.00,1512.36 3908.27,1497.08 3858.94,1481.74 3812.92,1467.52 3766.81,1453.23 3731.46,1442.31 3657.98,1419.52 3615.72,1406.39 3558.00,1388.55 3523.30,1377.87 3476.95,1363.58 3407.17,1342.04 3337.74,1320.74 3290.73,1306.23 3232.39,1288.23 3186.25,1273.92 3151.81,1263.33 3105.58,1248.92 3035.83,1227.56 2954.98,1202.29 2894.26,1183.39 2832.86,1164.29 2796.51,1153.27 2772.37,1145.80 2735.31,1134.39 2699.74,1123.42 2652.45,1108.87 2617.66,1097.94 2571.35,1083.58 2525.19,1069.39">
        <lane id="625.0_0" index="0" disallow="all" speed="13.89" length="1703.41" width="3.66" shape="4149.75,1581.78 4125.35,1574.23 4077.09,1559.27 4015.72,1540.29 3954.27,1521.09 3905.54,1505.81 3856.23,1490.48 3810.22,1476.26 3764.11,1461.97 3728.75,1451.05 3655.27,1428.26 3613.01,1415.13 3555.30,1397.29 3520.61,1386.61 3474.25,1372.32 3404.48,1350.79 3335.05,1329.49 3288.03,1314.97 3229.69,1296.97 3183.55,1282.66 3149.11,1272.07 3102.88,1257.66 3033.13,1236.30 2952.26,1211.02 2891.54,1192.13 2830.18,1173.04 2793.83,1162.02 2769.67,1154.54 2732.62,1143.13 2697.05,1132.16 2649.74,1117.61 2614.94,1106.67 2568.65,1092.32 2522.50,1078.14" type="shoulder"/>
        <lane id="625.0_1" index="1" speed="13.89" length="1703.41" width="3.66" shape="4150.83,1578.28 4126.44,1570.73 4078.17,1555.77 4016.80,1536.79 3955.36,1517.60 3906.64,1502.32 3857.32,1486.98 3811.30,1472.76 3765.19,1458.47 3729.84,1447.55 3656.35,1424.76 3614.10,1411.63 3556.38,1393.80 3521.69,1383.12 3475.33,1368.83 3405.56,1347.29 3336.13,1325.99 3289.11,1311.48 3230.77,1293.47 3184.63,1279.17 3150.19,1268.57 3103.96,1254.17 3034.21,1232.80 2953.35,1207.53 2892.63,1188.63 2831.25,1169.54 2794.90,1158.52 2770.75,1151.05 2733.70,1139.64 2698.13,1128.67 2650.82,1114.11 2616.03,1103.18 2569.73,1088.83 2523.58,1074.64"/>
        <lane id="625.0_2" index="2" speed="13.89" length="1703.41" width="3.66" shape="4151.91,1574.79 4127.52,1567.24 4079.25,1552.28 4017.89,1533.30 3956.46,1514.11 3907.73,1498.83 3858.40,1483.49 3812.38,1469.27 3766.27,1454.98 3730.92,1444.06 3657.44,1421.27 3615.18,1408.14 3557.46,1390.30 3522.76,1379.62 3476.41,1365.33 3406.63,1343.79 3337.20,1322.49 3290.19,1307.98 3231.85,1289.98 3185.71,1275.67 3151.27,1265.08 3105.04,1250.67 3035.29,1229.31 2954.44,1204.04 2893.72,1185.14 2832.32,1166.04 2795.98,1155.02 2771.83,1147.55 2734.77,1136.14 2699.20,1125.17 2651.91,1110.62 2617.12,1099.69 2570.81,1085.33 2524.65,1071.14"/>
    </edge>
    <edge id="626.0" from="junction_109" to="node_626_end" priority="-1" type="town" shape="2398.80,1030.18 2385.43,1025.99 2369.03,1020.89">
        <lane id="626.0_0" index="0" speed="13.89" length="23.01" width="3.66" shape="2390.80,1033.42 2383.80,1031.23 2368.84,1026.58"/>
        <lane id="626.0_1" index="1" speed="13.89" length="23.01" width="3.66" shape="2391.89,1029.93 2384.89,1027.74 2369.92,1023.08"/>
    </edge>
    <edge id="628.0" from="node_628_start" to="junction_49" priority="-1" type="town" shape="2041.20,920.96 2032.00,911.76 2026.89,907.97 2025.67,907.08 2019.79,903.43 2014.19,900.14 2008.66,896.96 2000.25,892.24">
        <lane id="628.0_0" index="0" speed="13.89" length="49.82" width="3.66" shape="2039.91,922.26 2030.80,913.15 2025.80,909.44 2024.65,908.60 2018.85,905.00 2013.27,901.72 2007.76,898.55 1999.36,893.84"/>
    </edge>
    <edge id="633.0" from="node_626_end" to="junction_49" priority="-1" type="town" shape="2369.03,1020.89 2350.77,1015.23 2315.84,1004.46 2269.33,989.75 2223.51,974.71 2200.37,966.50 2177.51,957.79 2155.19,948.68 2132.92,939.08 2110.93,929.52 2088.19,919.59 2064.57,909.38 2021.96,890.72 2004.04,882.83">
        <lane id="633.0_0" index="0" disallow="all" speed="13.89" length="389.80" width="3.66" shape="2364.89,1029.19 2348.07,1023.97 2313.11,1013.19 2266.53,998.46 2220.56,983.37 2197.21,975.09 2174.15,966.30 2151.65,957.12 2129.29,947.48 2107.28,937.91 2084.55,927.98 2060.92,917.77 2018.29,899.10 2000.36,891.20" type="shoulder"/>
        <lane id="633.0_1" index="1" speed="13.89" length="389.80" width="3.66" shape="2365.97,1025.69 2349.15,1020.48 2314.21,1009.70 2267.65,994.98 2221.74,979.91 2198.48,971.65 2175.50,962.90 2153.07,953.74 2130.74,944.12 2108.74,934.55 2086.00,924.63 2062.38,914.41 2019.76,895.75 2001.83,887.85"/>
        <lane id="633.0_2" index="2" speed="13.89" length="389.80" width="3.66" shape="2367.06,1022.19 2350.23,1016.98 2315.30,1006.21 2268.77,991.49 2222.92,976.44 2199.74,968.22 2176.84,959.49 2154.48,950.37 2132.20,940.76 2110.20,931.20 2087.46,921.27 2063.84,911.06 2021.23,892.40 2003.30,884.50"/>
    </edge>
    <edge id="643.0" from="junction_109" to="node_643_end" priority="-1" type="town" shape="2396.90,1036.96 2365.82,1030.46">
        <lane id="643.0_0" index="0" speed="13.89" length="24.71" width="3.66" shape="2389.78,1037.34 2365.59,1032.28"/>
    </edge>
    <edge id="647.0" from="node_643_end" to="node_647_end" priority="-1" type="town" shape="2365.82,1030.46 2354.89,1028.13 2344.97,1026.20 2337.16,1025.02 2326.80,1024.09 2322.14,1024.13">
        <lane id="647.0_0" index="0" speed="13.89" length="43.70" width="3.66" shape="2365.30,1032.22 2354.53,1029.92 2344.66,1028.00 2336.94,1026.84 2326.73,1025.92 2322.16,1025.96"/>
    </edge>
    <edge id="649.0" from="node_649_start" to="node_649_end" priority="-1" type="town" shape="1804.78,795.82 1797.04,792.42 1788.77,788.73 1779.12,784.48 1767.41,779.30 1756.32,774.33 1747.91,770.61 1736.43,765.46 1727.32,761.40 1717.52,757.07 1710.16,753.80 1701.35,749.92 1691.25,745.45 1683.63,742.12 1673.66,737.71 1663.77,733.37 1652.94,728.60 1641.04,723.40 1625.41,716.60 1615.53,712.28 1606.39,708.27 1597.08,704.16 1589.53,700.81 1581.62,697.34 1572.24,693.19 1564.15,689.57 1559.22,687.39">
        <lane id="649.0_0" index="0" disallow="all" speed="13.89" length="262.97" width="3.66" shape="1797.45,802.60 1793.34,800.79 1785.07,797.10 1775.43,792.85 1763.69,787.66 1752.60,782.69 1744.19,778.97 1732.70,773.81 1723.61,769.76 1713.82,765.44 1706.46,762.17 1697.66,758.29 1687.57,753.82 1679.95,750.50 1669.97,746.08 1660.09,741.75 1649.27,736.98 1637.39,731.79 1621.76,724.99 1611.86,720.66 1602.71,716.64 1593.38,712.53 1585.84,709.18 1577.93,705.71 1568.52,701.55 1560.43,697.93 1556.89,696.36" type="shoulder"/>
        <lane id="649.0_1" index="1" speed="13.89" length="262.97" width="3.66" shape="1798.93,799.24 1794.82,797.44 1786.55,793.75 1776.90,789.50 1765.18,784.32 1754.09,779.34 1745.68,775.62 1734.19,770.47 1725.10,766.42 1715.30,762.09 1707.94,758.82 1699.13,754.94 1689.04,750.47 1681.42,747.15 1671.45,742.73 1661.56,738.40 1650.74,733.63 1638.85,728.43 1623.22,721.63 1613.33,717.31 1604.18,713.29 1594.86,709.18 1587.32,705.83 1579.41,702.36 1570.01,698.21 1561.92,694.58 1558.37,693.02"/>
        <lane id="649.0_2" index="2" speed="13.89" length="262.97" width="3.66" shape="1800.40,795.89 1796.30,794.09 1788.03,790.40 1778.38,786.15 1766.67,780.97 1755.58,776.00 1747.17,772.28 1735.69,767.13 1726.58,763.07 1716.78,758.74 1709.42,755.47 1700.61,751.59 1690.51,747.12 1682.90,743.80 1672.92,739.38 1663.04,735.05 1652.21,730.28 1640.31,725.08 1624.68,718.28 1614.80,713.96 1605.66,709.94 1596.34,705.83 1588.79,702.48 1580.88,699.01 1571.50,694.86 1563.41,691.24 1559.85,689.67"/>
    </edge>
    <edge id="651.0" from="node_651_start" to="node_651_end" priority="-1" type="town" shape="1357.05,597.95 1342.67,591.55 1329.88,585.96 1317.45,580.34 1299.93,572.59 1283.17,565.10 1265.92,557.48 1250.31,550.64 1237.34,545.04 1224.43,539.37 1211.90,533.81 1199.36,528.33 1181.09,520.24 1179.00,519.30">
        <lane id="651.0_0" index="0" disallow="all" speed="13.89" length="193.03" width="3.66" shape="1351.98,605.71 1338.98,599.92 1326.17,594.32 1313.72,588.69 1296.22,580.95 1279.46,573.46 1262.24,565.85 1246.66,559.03 1233.69,553.43 1220.74,547.74 1208.21,542.18 1195.67,536.70 1177.38,528.60 1175.39,527.71" type="shoulder"/>
        <lane id="651.0_1" index="1" speed="13.89" length="193.03" width="3.66" shape="1353.47,602.36 1340.46,596.57 1327.65,590.98 1315.21,585.35 1297.70,577.61 1280.94,570.12 1263.71,562.50 1248.12,555.67 1235.15,550.07 1222.22,544.39 1209.69,538.83 1197.15,533.35 1178.87,525.26 1176.90,524.37"/>
        <lane id="651.0_2" index="2" speed="13.89" length="193.03" width="3.66" shape="1354.96,599.02 1341.93,593.22 1329.14,587.63 1316.71,582.01 1299.19,574.26 1282.43,566.77 1265.19,559.15 1249.58,552.32 1236.61,546.72 1223.69,541.04 1211.16,535.48 1198.62,530.00 1180.35,521.91 1178.40,521.03"/>
    </edge>
    <edge id="652.0" from="node_649_end" to="junction_111" priority="-1" type="town" shape="1559.22,687.39 1548.56,682.67 1543.21,680.29 1539.57,678.65 1536.96,677.51">
        <lane id="652.0_0" index="0" speed="13.89" length="22.84" width="3.66" shape="1555.63,691.80 1546.34,687.69 1540.97,685.30 1537.34,683.67 1534.76,682.54"/>
        <lane id="652.0_1" index="1" speed="13.89" length="22.84" width="3.66" shape="1557.11,688.46 1547.82,684.34 1542.47,681.96 1538.83,680.32 1536.23,679.19"/>
    </edge>
    <edge id="653.0" from="node_651_end" to="node_653_end" priority="-1" type="town" shape="1179.00,519.30 1168.11,514.47 1155.56,508.91 1139.74,501.99 1130.90,498.09">
        <lane id="653.0_0" index="0" disallow="all" speed="13.89" length="50.90" width="3.66" shape="1175.15,527.60 1164.40,522.84 1151.88,517.29 1136.07,510.37 1128.58,507.07" type="shoulder"/>
        <lane id="653.0_1" index="1" speed="13.89" length="50.90" width="3.66" shape="1176.63,524.25 1165.89,519.49 1153.35,513.94 1137.54,507.02 1130.05,503.72"/>
        <lane id="653.0_2" index="2" speed="13.89" length="50.90" width="3.66" shape="1178.12,520.91 1167.37,516.14 1154.83,510.59 1139.01,503.67 1131.53,500.37"/>
    </edge>
    <edge id="654.0" from="node_654_start" to="node_649_start" priority="-1" type="town" shape="1886.81,831.65 1885.67,831.15 1874.49,826.26 1862.27,820.95 1847.73,814.62 1834.41,808.83 1825.26,804.87 1814.04,799.90 1804.78,795.82">
        <lane id="654.0_0" index="0" speed="13.89" length="84.19" width="3.66" shape="1883.41,836.15 1872.30,831.29 1860.08,825.98 1845.54,819.65 1832.23,813.87 1823.06,809.90 1811.82,804.92 1806.24,802.46"/>
        <lane id="654.0_1" index="1" speed="13.89" length="84.19" width="3.66" shape="1884.87,832.80 1873.76,827.94 1861.54,822.63 1847.00,816.30 1833.68,810.51 1824.53,806.55 1813.30,801.57 1807.72,799.11"/>
    </edge>
    <edge id="655.0" from="junction_49" to="node_654_start" priority="-1" type="town" shape="1967.64,867.01 1956.39,862.16 1949.35,859.11 1939.82,854.97 1930.66,850.95 1921.76,847.06 1916.13,844.59 1906.80,840.45 1896.07,835.73 1886.81,831.65">
        <lane id="655.0_0" index="0" speed="13.89" length="86.58" width="3.66" shape="1964.02,875.41 1952.76,870.56 1945.71,867.50 1936.16,863.36 1926.99,859.33 1918.09,855.44 1912.43,852.96 1903.11,848.82 1892.39,844.10 1884.67,840.71"/>
        <lane id="655.0_1" index="1" speed="13.89" length="86.58" width="3.66" shape="1965.47,872.05 1954.22,867.20 1947.17,864.15 1937.63,860.00 1928.46,855.98 1919.56,852.09 1913.91,849.61 1904.58,845.47 1893.86,840.75 1886.15,837.36"/>
        <lane id="655.0_2" index="2" speed="13.89" length="86.58" width="3.66" shape="1966.92,868.69 1955.67,863.84 1948.62,860.79 1939.09,856.65 1929.93,852.63 1921.03,848.74 1915.39,846.26 1906.06,842.12 1895.33,837.40 1887.62,834.01"/>
    </edge>
    <edge id="656.0" from="node_654_start" to="node_649_start" priority="-1" type="town" shape="1884.21,838.43 1803.34,799.17">
        <lane id="656.0_0" index="0" speed="13.89" length="83.84" width="3.66" shape="1881.67,839.23 1806.25,802.62"/>
    </edge>
    <edge id="657.0" from="junction_111" to="node_657_end" priority="-1" type="town" shape="1412.24,629.79 1405.36,627.31 1398.05,624.62 1383.77,619.45 1365.34,612.97 1359.06,610.77 1351.90,608.23">
        <lane id="657.0_0" index="0" speed="13.89" length="54.77" width="3.66" shape="1403.02,628.40 1397.43,626.34 1383.16,621.17 1364.74,614.70 1358.45,612.50 1351.43,610.00"/>
    </edge>
    <edge id="661.0" from="junction_111" to="node_651_start" priority="-1" type="town" shape="1415.34,623.54 1405.79,619.34 1394.31,614.27 1380.82,608.33 1371.06,604.01 1357.05,597.95">
        <lane id="661.0_0" index="0" speed="13.89" length="52.71" width="3.66" shape="1404.49,624.76 1403.58,624.36 1392.10,619.29 1378.61,613.35 1368.86,609.04 1356.23,603.58"/>
        <lane id="661.0_1" index="1" speed="13.89" length="52.71" width="3.66" shape="1405.96,621.41 1405.05,621.01 1393.57,615.94 1380.08,610.00 1370.33,605.69 1357.68,600.22"/>
    </edge>
    <edge id="662.0" from="node_657_end" to="node_662_end" priority="-1" type="town" shape="1351.90,608.23 1349.57,607.40 1336.47,602.74 1323.11,597.94 1308.98,592.74">
        <lane id="662.0_0" index="0" speed="13.89" length="45.50" width="3.66" shape="1351.15,609.90 1348.96,609.12 1335.86,604.46 1322.49,599.66 1308.35,594.46"/>
    </edge>
    <edge id="865.0" from="node_865_start" to="junction_59" priority="-1" type="town" shape="666.32,293.92 663.77,292.82 644.93,284.38 614.91,271.13 582.01,256.59 546.04,240.81 511.32,225.45 480.37,211.84 439.17,193.63 401.94,177.27 365.45,161.11 338.32,149.17 318.07,140.30 296.78,130.94 281.13,123.97 256.51,113.11 237.99,104.96 220.83,97.36 206.78,91.18 191.50,84.46 174.02,76.74 160.63,70.90">
        <lane id="865.0_0" index="0" speed="13.89" length="551.21" width="3.66" shape="661.32,301.73 660.09,301.20 641.21,292.74 611.22,279.50 578.32,264.96 542.35,249.18 507.63,233.82 476.68,220.21 435.48,202.00 398.25,185.64 361.76,169.48 334.64,157.55 314.40,148.68 293.08,139.31 277.43,132.34 252.82,121.48 234.30,113.33 217.14,105.73 203.10,99.56 187.81,92.83 170.34,85.12 156.97,79.29"/>
        <lane id="865.0_1" index="1" speed="13.89" length="551.21" width="3.66" shape="662.77,298.37 661.56,297.85 642.70,289.40 612.69,276.15 579.80,261.61 543.83,245.83 509.11,230.47 478.16,216.86 436.96,198.65 399.73,182.29 363.23,166.13 336.11,154.20 315.87,145.33 294.56,135.96 278.91,128.99 254.30,118.13 235.78,109.98 218.61,102.38 204.57,96.21 189.29,89.48 171.81,81.77 158.44,75.93"/>
        <lane id="865.0_2" index="2" speed="13.89" length="551.21" width="3.66" shape="664.22,295.01 663.04,294.50 644.19,286.05 614.17,272.80 581.27,258.26 545.30,242.48 510.58,227.12 479.63,213.51 438.43,195.30 401.20,178.94 364.71,162.78 337.59,150.85 317.34,141.98 296.04,132.61 280.39,125.64 255.77,114.78 237.25,106.63 220.09,99.03 206.05,92.86 190.76,86.13 173.29,78.42 159.90,72.58"/>
    </edge>
    <edge id="866.0" from="node_653_end" to="node_866_end" priority="-1" type="town" shape="1130.90,498.09 1110.66,489.10 1084.03,477.35 1070.76,471.54 1058.80,466.28 1042.17,458.72 1017.53,447.91 996.66,438.78 982.75,432.61 970.09,427.04 955.27,420.46 934.55,411.33 926.92,407.97">
        <lane id="866.0_0" index="0" speed="13.89" length="217.51" width="3.66" shape="1127.31,502.50 1108.44,494.12 1081.82,482.37 1068.56,476.57 1056.56,471.29 1039.93,463.73 1015.33,452.94 994.45,443.81 980.53,437.63 967.87,432.06 953.05,425.48 932.34,416.35 928.36,414.60"/>
        <lane id="866.0_1" index="1" speed="13.89" length="217.51" width="3.66" shape="1128.79,499.16 1109.92,490.77 1083.30,479.02 1070.03,473.22 1058.06,467.95 1041.43,460.39 1016.80,449.59 995.93,440.46 982.01,434.28 969.35,428.71 954.53,422.13 933.81,413.00 929.83,411.25"/>
    </edge>
    <edge id="867.0" from="node_866_end" to="node_865_start" priority="-1" type="town" shape="926.92,407.97 907.62,399.45 888.31,390.96 866.76,381.43 847.93,373.18 818.09,359.97 794.99,349.76 770.64,339.00 747.17,328.77 711.02,313.10 682.06,300.73 666.32,293.92">
        <lane id="867.0_0" index="0" speed="13.89" length="278.82" width="3.66" shape="920.99,411.35 905.41,404.47 886.10,395.98 864.55,386.45 845.72,378.20 815.87,364.99 792.77,354.78 768.44,344.03 744.98,333.81 708.85,318.14 679.90,305.78 665.58,299.58"/>
        <lane id="867.0_1" index="1" speed="13.89" length="278.82" width="3.66" shape="922.47,408.00 906.88,401.12 887.57,392.63 866.02,383.10 847.19,374.85 817.35,361.64 794.25,351.43 769.91,340.68 746.44,330.45 710.30,314.78 681.34,302.41 667.03,296.22"/>
    </edge>
    <edge id="868.0" from="node_866_end" to="node_865_start" priority="-1" type="town" shape="925.47,411.21 896.35,398.88 867.28,386.46 838.18,374.11 808.79,361.53 779.75,349.20 750.79,337.21 721.62,324.99 692.45,312.78 663.29,300.55">
        <lane id="868.0_0" index="0" speed="13.89" length="278.91" width="3.66" shape="921.09,411.34 895.64,400.56 866.57,388.14 837.46,375.79 808.07,363.21 779.04,350.89 750.09,338.90 720.92,326.68 691.75,314.47 664.12,302.88"/>
    </edge>
    <edge id="869.0" from="node_869_start" to="junction_59" priority="-1" type="town" shape="272.92,138.21 236.60,121.85 199.35,104.45">
        <lane id="869.0_0" index="0" speed="13.89" length="129.80" width="3.66" shape="272.17,139.88 235.84,123.51 154.34,85.44"/>
    </edge>
    <edge id="873.0" from="junction_59" to="node_873_end" priority="-1" type="town" shape="112.79,49.78 92.64,40.83 72.42,31.91 47.65,21.01 20.40,8.96 0.00,0.00">
        <lane id="873.0_0" index="0" speed="13.89" length="123.26" width="3.66" shape="107.59,61.49 87.46,52.54 67.26,43.63 42.48,32.73 15.23,20.68 -5.15,11.73"/>
        <lane id="873.0_1" index="1" speed="13.89" length="123.26" width="3.66" shape="109.08,58.14 88.94,49.20 68.73,40.28 43.96,29.38 16.71,17.33 -3.68,8.38"/>
        <lane id="873.0_2" index="2" speed="13.89" length="123.26" width="3.66" shape="110.56,54.80 90.42,45.85 70.21,36.93 45.44,26.03 18.19,13.98 -2.21,5.03"/>
        <lane id="873.0_3" index="3" speed="13.89" length="123.26" width="3.66" shape="112.05,51.45 91.90,42.50 71.68,33.58 46.91,22.68 19.66,10.63 -0.74,1.67"/>
    </edge>

    <junction id="junction_109" type="priority" x="2440.30" y="1045.51" incLanes="625.0_0 625.0_1 625.0_2" intLanes=":junction_109_0_0 :junction_109_1_0 :junction_109_1_1" shape="2523.04,1076.39 2525.19,1069.39 2392.44,1028.19 2390.25,1035.17 2390.15,1035.55 2389.40,1039.13 2406.14,1043.16 2429.61,1049.43 2456.44,1056.92 2483.21,1064.60 2506.54,1071.43">
        <request index="0" response="000" foes="000" cont="0"/>
        <request index="1" response="000" foes="000" cont="0"/>
        <request index="2" response="000" foes="000" cont="0"/>
    </junction>
    <junction id="junction_111" type="priority" x="1454.85" y="643.61" incLanes="652.0_0 652.0_1" intLanes=":junction_111_0_0 :junction_111_1_0 :junction_111_1_1" shape="1534.03,684.22 1536.96,677.51 1406.70,619.74 1403.75,626.44 1403.65,626.68 1402.41,630.12">
        <request index="0" response="000" foes="000" cont="0"/>
        <request index="1" response="000" foes="000" cont="0"/>
        <request index="2" response="000" foes="000" cont="0"/>
    </junction>
    <junction id="junction_49" type="priority" x="1990.65" y="880.69" incLanes="628.0_0 633.0_0 633.0_1 633.0_2" intLanes=":junction_49_0_0 :junction_49_1_0 :junction_49_1_1" shape="1998.46,895.43 2000.25,892.24 1999.54,891.05 1999.62,890.36 1999.93,889.78 2000.43,889.46 2001.09,889.53 2004.04,882.83 1967.64,867.01 1963.30,877.09 1971.02,880.50 1976.66,883.18 1981.22,885.57 1985.70,888.11 1991.12,891.25">
        <request index="0" response="000" foes="000" cont="0"/>
        <request index="1" response="000" foes="000" cont="0"/>
        <request index="2" response="000" foes="000" cont="0"/>
    </junction>
    <junction id="junction_59" type="priority" x="157.59" y="75.04" incLanes="869.0_0 865.0_0 865.0_1 865.0_2" intLanes=":junction_59_0_0 :junction_59_0_1 :junction_59_2_0 :junction_59_2_1 :junction_59_2_2" shape="153.57,87.10 160.63,70.90 112.79,49.78 106.85,63.16">
        <request index="0" response="00000" foes="00000" cont="0"/>
        <request index="1" response="00100" foes="00100" cont="0"/>
        <request index="2" response="00000" foes="00010" cont="0"/>
        <request index="3" response="00000" foes="00000" cont="0"/>
        <request index="4" response="00000" foes="00000" cont="0"/>
    </junction>
    <junction id="node_625_start" type="dead_end" x="4152.45" y="1573.04" incLanes="" intLanes="" shape="4152.45,1573.04 4150.29,1580.03"/>
    <junction id="node_626_end" type="priority" x="2369.03" y="1020.89" incLanes="626.0_0 626.0_1" intLanes=":node_626_end_0_0 :node_626_end_0_1" shape="2368.29,1028.33 2370.47,1021.34 2367.60,1020.45 2365.43,1027.44">
        <request index="0" response="00" foes="00" cont="0"/>
        <request index="1" response="00" foes="00" cont="0"/>
    </junction>
    <junction id="node_628_start" type="dead_end" x="2041.20" y="920.96" incLanes="" intLanes="" shape="2041.20,920.96 2038.62,923.55"/>
    <junction id="node_643_end" type="priority" x="2365.82" y="1030.46" incLanes="643.0_0" intLanes=":node_643_end_0_0" shape="2365.22,1034.07 2365.97,1030.49 2365.68,1030.43 2364.92,1034.01">
        <request index="0" response="0" foes="0" cont="0"/>
    </junction>
    <junction id="node_647_end" type="dead_end" x="2322.14" y="1024.13" incLanes="647.0_0" intLanes="" shape="2322.17,1027.79 2322.14,1024.13"/>
    <junction id="node_649_end" type="priority" x="1559.23" y="687.39" incLanes="649.0_0 649.0_1 649.0_2" intLanes=":node_649_end_0_0 :node_649_end_0_1" shape="1557.63,694.69 1560.59,688.00 1557.85,686.78 1554.89,693.48">
        <request index="0" response="00" foes="00" cont="0"/>
        <request index="1" response="00" foes="00" cont="0"/>
    </junction>