<?xml version="1.0" encoding="UTF-8"?>

<!-- generated on 2025-10-19 17:35:16 by Eclipse SUMO netconvert Version 1.23.1
<netconvertConfiguration xmlns:xsi="http://www.w3.org/2001/XMLSchema-instance" xsi:noNamespaceSchemaLocation="http://sumo.dlr.de/xsd/netconvertConfiguration.xsd">

    <input>
        <node-files value="/home/sdai/harry/TeraSim/jupiter/eb/jupiter_eb_tiles/tile_0005/tile_0005.nod.xml"/>
        <edge-files value="/home/sdai/harry/TeraSim/jupiter/eb/jupiter_eb_tiles/tile_0005/tile_0005.edg.xml"/>
        <connection-files value="/home/sdai/harry/TeraSim/jupiter/eb/jupiter_eb_tiles/tile_0005/tile_0005.con.xml"/>
    </input>

    <output>
        <output-file value="/home/sdai/harry/TeraSim/jupiter/eb/jupiter_eb_tiles/tile_0005/tile_0005.net.xml"/>
        <output.street-names value="true"/>
        <output.original-names value="true"/>
    </output>

    <processing>
        <geometry.remove value="false"/>
        <geometry.min-dist value="0.5"/>
        <edges.join value="false"/>
    </processing>

    <junctions>
        <no-internal-links value="false"/>
        <no-turnarounds value="true"/>
        <junctions.join value="true"/>
        <junctions.join-dist value="10"/>
        <junctions.corner-detail value="5"/>
        <junctions.internal-link-detail value="5"/>
        <junctions.limit-turn-speed value="5.5"/>
        <rectangular-lane-cut value="true"/>
        <check-lane-foes.all value="true"/>
    </junctions>

</netconvertConfiguration>
-->

<net version="1.20" junctionCornerDetail="5" junctionLinkDetail="5" rectangularLaneCut="true" limitTurnSpeed="5.50" checkLaneFoesAll="1" xmlns:xsi="http://www.w3.org/2001/XMLSchema-instance" xsi:noNamespaceSchemaLocation="http://sumo.dlr.de/xsd/net_file.xsd">

    <location netOffset="-571464.75,-3260804.84" convBoundary="0.00,0.00,8857.03,3620.10" origBoundary="0.00,0.00,580321.78,3264424.94" projParameter="!"/>

    <edge id=":j_merge_end_48_0" function="internal">
        <lane id=":j_merge_end_48_0_0" index="0" disallow="all" speed="13.89" length="42.41" width="3.66" shape="8712.32,3542.23 8722.56,3548.61 8728.73,3555.44 8735.19,3562.40 8746.30,3569.17"/>
        <lane id=":j_merge_end_48_0_1" index="1" speed="13.89" length="42.41" width="3.66" shape="8710.85,3545.58 8749.25,3562.47"/>
        <lane id=":j_merge_end_48_0_2" index="2" speed="13.89" length="42.41" width="3.66" shape="8709.37,3548.93 8747.77,3565.82"/>
        <lane id=":j_merge_end_48_0_3" index="3" disallow="all" speed="13.89" length="42.41" width="3.66" shape="8707.90,3552.28 8746.30,3569.17"/>
    </edge>
    <edge id=":j_merge_start_48_0" function="internal">
        <lane id=":j_merge_start_48_0_0" index="0" speed="4.32" length="7.08" width="3.66" shape="8266.92,3351.09 8265.83,3349.20 8265.83,3347.84 8266.92,3347.03 8269.09,3346.76"/>
    </edge>
    <edge id=":j_merge_start_48_1" function="internal">
        <lane id=":j_merge_start_48_1_0" index="0" speed="13.89" length="186.88" width="3.66" shape="8096.59,3274.78 8267.61,3350.10"/>
        <lane id=":j_merge_start_48_1_1" index="1" speed="13.89" length="186.88" width="3.66" shape="8095.10,3278.13 8266.13,3353.45"/>
    </edge>
    <edge id=":junction_104_0" function="internal">
        <lane id=":junction_104_0_0" index="0" speed="13.89" length="87.58" width="3.66" shape="2686.90,1053.00 2703.09,1058.79 2730.01,1068.05 2756.08,1076.88 2769.75,1081.37"/>
    </edge>
    <edge id=":junction_104_1" function="internal">
        <lane id=":junction_104_1_0" index="0" speed="13.89" length="87.69" width="3.66" shape="2686.90,1053.00 2768.47,1085.19"/>
        <lane id=":junction_104_1_1" index="1" speed="13.89" length="87.69" width="3.66" shape="2685.55,1056.40 2767.13,1088.60"/>
    </edge>
    <edge id=":node_106_end_0" function="internal">
        <lane id=":node_106_end_0_0" index="0" speed="13.89" length="0.29" width="3.66" shape="2643.86,1036.12 2644.11,1036.21"/>
        <lane id=":node_106_end_0_1" index="1" speed="13.89" length="0.29" width="3.66" shape="2642.49,1039.51 2642.79,1039.63"/>
    </edge>
    <edge id=":node_106_start_0" function="internal">
        <lane id=":node_106_start_0_0" index="0" speed="13.89" length="0.30" width="3.66" shape="1428.56,553.44 1428.85,553.56"/>
        <lane id=":node_106_start_0_1" index="1" speed="13.89" length="0.30" width="3.66" shape="1427.22,556.85 1427.49,556.95"/>
    </edge>
    <edge id=":node_107_end_0" function="internal">
        <lane id=":node_107_end_0_0" index="0" speed="13.89" length="0.30" width="3.66" shape="4082.57,1606.75 4082.85,1606.86"/>
        <lane id=":node_107_end_0_1" index="1" speed="13.89" length="0.30" width="3.66" shape="4081.22,1610.15 4081.49,1610.26"/>
    </edge>
    <edge id=":node_107_start_0" function="internal">
        <lane id=":node_107_start_0_0" index="0" speed="13.89" length="0.10" width="3.66" shape="2981.86,1170.14 2981.86,1170.14"/>
        <lane id=":node_107_start_0_1" index="1" speed="13.89" length="0.10" width="3.66" shape="2980.51,1173.54 2980.51,1173.54"/>
    </edge>
    <edge id=":node_108_start_0" function="internal">
        <lane id=":node_108_start_0_0" index="0" speed="13.89" length="0.30" width="3.66" shape="1133.55,436.42 1133.81,436.52"/>
        <lane id=":node_108_start_0_1" index="1" speed="13.89" length="0.30" width="3.66" shape="1132.20,439.82 1132.49,439.94"/>
    </edge>
    <edge id=":node_109_start_0" function="internal">
        <lane id=":node_109_start_0_0" index="0" speed="13.89" length="0.29" width="3.66" shape="2944.79,1129.65 2945.07,1129.72"/>
    </edge>
    <edge id=":node_110_end_0" function="internal">
        <lane id=":node_110_end_0_0" index="0" speed="13.89" length="0.30" width="3.66" shape="7957.06,3209.13 7957.33,3209.25"/>
        <lane id=":node_110_end_0_1" index="1" speed="13.89" length="0.30" width="3.66" shape="7955.58,3212.48 7955.86,3212.60"/>
    </edge>
    <edge id=":node_110_start_0" function="internal">
        <lane id=":node_110_start_0_0" index="0" speed="13.89" length="0.30" width="3.66" shape="7883.26,3177.32 7883.52,3177.43"/>
        <lane id=":node_110_start_0_1" index="1" speed="13.89" length="0.30" width="3.66" shape="7881.83,3180.69 7882.12,3180.81"/>
    </edge>
    <edge id=":node_111_start_0" function="internal">
        <lane id=":node_111_start_0_0" index="0" speed="13.89" length="0.30" width="3.66" shape="8055.92,3252.75 8056.21,3252.88"/>
        <lane id=":node_111_start_0_1" index="1" speed="13.89" length="0.30" width="3.66" shape="8054.45,3256.11 8054.73,3256.23"/>
        <lane id=":node_111_start_0_2" index="2" speed="13.89" length="0.30" width="3.66" shape="8052.99,3259.46 8053.24,3259.57"/>
    </edge>
    <edge id=":node_112_end_0" function="internal">
        <lane id=":node_112_end_0_0" index="0" speed="13.89" length="0.30" width="3.66" shape="5904.81,2330.22 5905.10,2330.33"/>
        <lane id=":node_112_end_0_1" index="1" speed="13.89" length="0.30" width="3.66" shape="5903.46,2333.62 5903.74,2333.73"/>
    </edge>
    <edge id=":node_112_start_0" function="internal">
        <lane id=":node_112_start_0_0" index="0" speed="13.89" length="0.29" width="3.66" shape="5852.48,2309.35 5852.77,2309.46"/>
        <lane id=":node_112_start_0_1" index="1" speed="13.89" length="0.29" width="3.66" shape="5851.14,2312.75 5851.40,2312.85"/>
    </edge>
    <edge id=":node_113_end_0" function="internal">
        <lane id=":node_113_end_0_0" index="0" speed="13.89" length="0.30" width="3.66" shape="7118.66,2846.70 7118.94,2846.82"/>
        <lane id=":node_113_end_0_1" index="1" speed="13.89" length="0.30" width="3.66" shape="7117.20,2850.05 7117.46,2850.17"/>
    </edge>
    <edge id=":node_113_start_0" function="internal">
        <lane id=":node_113_start_0_0" index="0" speed="13.89" length="0.30" width="3.66" shape="7071.92,2826.29 7072.18,2826.40"/>
        <lane id=":node_113_start_0_1" index="1" speed="13.89" length="0.30" width="3.66" shape="7070.44,2829.64 7070.72,2829.76"/>
    </edge>
    <edge id=":node_114_start_0" function="internal">
        <lane id=":node_114_start_0_0" index="0" speed="13.89" length="0.13" width="3.66" shape="5781.40,2280.99 5781.58,2281.06"/>
        <lane id=":node_114_start_0_1" index="1" speed="13.89" length="0.13" width="3.66" shape="5780.10,2284.41 5780.16,2284.44"/>
    </edge>
    <edge id=":node_115_end_0" function="internal">
        <lane id=":node_115_end_0_0" index="0" speed="13.89" length="0.30" width="3.66" shape="6818.12,2714.14 6818.39,2714.26"/>
        <lane id=":node_115_end_0_1" index="1" speed="13.89" length="0.30" width="3.66" shape="6816.64,2717.49 6816.92,2717.61"/>
    </edge>
    <edge id=":node_115_start_0" function="internal">
        <lane id=":node_115_start_0_0" index="0" speed="13.89" length="0.30" width="3.66" shape="6114.17,2413.31 6114.46,2413.42"/>
        <lane id=":node_115_start_0_1" index="1" speed="13.89" length="0.30" width="3.66" shape="6112.83,2416.71 6113.09,2416.82"/>
    </edge>
    <edge id=":node_813_end_0" function="internal">
        <lane id=":node_813_end_0_0" index="0" speed="13.89" length="0.30" width="3.66" shape="7457.39,2996.28 7457.66,2996.40"/>
        <lane id=":node_813_end_0_1" index="1" speed="13.89" length="0.30" width="3.66" shape="7455.88,2999.61 7456.15,2999.74"/>
    </edge>
    <edge id=":node_814_end_0" function="internal">
        <lane id=":node_814_end_0_0" index="0" speed="13.89" length="0.30" width="3.66" shape="7583.35,3050.83 7583.62,3050.94"/>
        <lane id=":node_814_end_0_1" index="1" speed="13.89" length="0.30" width="3.66" shape="7581.94,3054.20 7582.22,3054.32"/>
    </edge>
    <edge id=":node_818_end_0" function="internal">
        <lane id=":node_818_end_0_0" index="0" speed="13.89" length="0.30" width="3.66" shape="2894.84,1135.47 2895.13,1135.59"/>
        <lane id=":node_818_end_0_1" index="1" speed="13.89" length="0.30" width="3.66" shape="2893.53,1138.89 2893.80,1139.00"/>
    </edge>
    <edge id=":node_825_start_0" function="internal">
        <lane id=":node_825_start_0_0" index="0" speed="13.89" length="8.01" width="3.66" shape="4501.08,1773.02 4508.52,1775.96"/>
        <lane id=":node_825_start_0_1" index="1" speed="13.89" length="8.01" width="3.66" shape="4499.72,1776.42 4507.18,1779.37"/>
    </edge>
    <edge id=":node_825_start_2" function="internal">
        <lane id=":node_825_start_2_0" index="0" speed="13.89" length="8.01" width="3.66" shape="4500.94,1773.36 4508.52,1775.96"/>
    </edge>
    <edge id=":node_826_end_0" function="internal">
        <lane id=":node_826_end_0_0" index="0" speed="13.89" length="8.69" width="3.66" shape="4225.87,1663.80 4228.39,1664.19 4230.26,1663.58 4232.13,1662.97 4234.65,1663.36"/>
        <lane id=":node_826_end_0_1" index="1" speed="13.89" length="8.69" width="3.66" shape="4224.51,1667.20 4227.03,1667.59 4228.91,1666.98 4230.78,1666.37 4233.30,1666.76"/>
        <lane id=":node_826_end_0_2" index="2" speed="13.89" length="8.69" width="3.66" shape="4224.51,1667.20 4231.94,1670.16"/>
    </edge>
    <edge id=":node_834_end_0" function="internal">
        <lane id=":node_834_end_0_0" index="0" speed="13.89" length="3.34" width="3.66" shape="4411.95,1733.73 4412.82,1734.19 4413.34,1734.64 4413.85,1735.10 4414.71,1735.58"/>
    </edge>
    <edge id=":node_834_end_1" function="internal">
        <lane id=":node_834_end_1_0" index="0" speed="13.89" length="3.01" width="3.66" shape="4410.60,1737.13 4413.39,1738.24"/>
        <lane id=":node_834_end_1_1" index="1" speed="13.89" length="3.01" width="3.66" shape="4409.24,1740.53 4412.04,1741.64"/>
    </edge>
    <edge id=":node_885_end_0" function="internal">
        <lane id=":node_885_end_0_0" index="0" speed="13.64" length="93.48" width="3.66" shape="8610.29,3486.88 8642.09,3501.55 8652.46,3507.00 8641.37,3503.23 8608.84,3490.24"/>
    </edge>

    <edge id="106.0" from="node_106_start" to="node_106_end" priority="-1" type="town" shape="1426.68,558.60 1445.89,566.32 1480.75,579.96 1530.69,599.78 1576.30,617.93 1610.79,631.63 1645.36,645.39 1685.49,661.33 1723.99,676.64 1757.91,690.14 1791.83,703.59 1819.22,714.34 1846.30,725.25 1877.63,737.58 1915.96,752.83 1951.46,766.99 1984.27,779.81 2010.56,790.39 2038.44,801.38 2068.54,813.29 2103.63,827.31 2131.61,838.43 2165.87,852.06 2193.43,862.94 2226.81,876.25 2250.22,885.52 2283.94,898.92 2319.78,913.13 2354.35,926.78 2382.75,938.03 2420.64,953.21 2449.62,964.71 2492.22,981.65 2530.50,996.76 2562.96,1009.68 2606.32,1026.87 2621.53,1033.04 2641.97,1041.27">
        <lane id="106.0_0" index="0" speed="13.89" length="1307.33" width="3.66" shape="1428.85,553.56 1447.91,561.22 1482.76,574.86 1532.72,594.68 1578.33,612.83 1612.82,626.53 1647.39,640.29 1687.52,656.23 1726.02,671.54 1759.94,685.04 1793.84,698.49 1821.25,709.24 1848.33,720.15 1879.65,732.48 1917.99,747.73 1953.48,761.89 1986.29,774.71 2012.59,785.29 2040.46,796.28 2070.57,808.19 2105.66,822.21 2133.64,833.33 2167.89,846.96 2195.45,857.84 2228.84,871.15 2252.24,880.42 2285.97,893.82 2321.80,908.03 2356.37,921.68 2384.78,932.93 2422.67,948.11 2451.65,959.61 2494.24,976.55 2532.52,991.66 2564.99,1004.58 2608.36,1021.78 2623.59,1027.95 2643.86,1036.12"/>
        <lane id="106.0_1" index="1" speed="13.89" length="1307.33" width="3.66" shape="1427.49,556.95 1446.56,564.62 1481.42,578.26 1531.37,598.08 1576.98,616.23 1611.47,629.93 1646.04,643.69 1686.17,659.63 1724.67,674.94 1758.59,688.44 1792.50,701.89 1819.90,712.64 1846.98,723.55 1878.30,735.88 1916.64,751.13 1952.13,765.29 1984.94,778.11 2011.24,788.69 2039.11,799.68 2069.22,811.59 2104.31,825.61 2132.29,836.73 2166.54,850.36 2194.10,861.24 2227.49,874.55 2250.89,883.82 2284.62,897.22 2320.45,911.43 2355.02,925.08 2383.43,936.33 2421.32,951.51 2450.30,963.01 2492.89,979.95 2531.17,995.06 2563.64,1007.98 2607.00,1025.17 2622.22,1031.35 2642.49,1039.51"/>
    </edge>
    <edge id="107.0" from="node_107_start" to="node_107_end" priority="-1" type="town" shape="2979.84,1175.24 2999.81,1183.14 3013.30,1188.39 3026.50,1193.70 3048.13,1202.33 3065.68,1209.24 3079.58,1214.85 3104.40,1224.73 3124.44,1232.68 3146.98,1241.48 3166.47,1249.29 3188.15,1257.79 3205.47,1264.78 3229.54,1274.20 3252.60,1283.34 3277.94,1293.44 3300.98,1302.55 3330.00,1314.13 3357.26,1324.92 3383.56,1335.34 3400.68,1342.22 3423.31,1351.09 3445.65,1360.04 3462.89,1366.84 3483.45,1374.89 3500.53,1381.78 3519.95,1389.46 3544.64,1399.19 3566.74,1408.10 3588.77,1416.90 3608.07,1424.50 3624.63,1431.18 3656.64,1443.74 3687.53,1455.93 3723.78,1470.11 3751.70,1480.68 3781.81,1492.39 3805.55,1501.97 3825.12,1509.70 3845.37,1518.09 3865.08,1526.05 3883.22,1533.73 3901.75,1541.09 3925.68,1550.61 3954.54,1561.97 3981.98,1572.84 4005.43,1582.22 4036.85,1594.49 4058.00,1602.90 4080.68,1611.90">
        <lane id="107.0_0" index="0" speed="13.89" length="1184.16" width="3.66" shape="2981.86,1170.14 3001.82,1178.03 3015.32,1183.29 3028.54,1188.61 3050.15,1197.23 3067.71,1204.14 3081.62,1209.76 3106.43,1219.63 3126.45,1227.57 3149.00,1236.38 3168.49,1244.19 3190.18,1252.69 3207.50,1259.68 3231.55,1269.09 3254.63,1278.24 3279.97,1288.34 3303.01,1297.45 3332.03,1309.03 3359.28,1319.82 3385.59,1330.24 3402.71,1337.12 3425.33,1345.99 3447.68,1354.94 3464.90,1361.73 3485.48,1369.79 3502.57,1376.68 3521.97,1384.36 3546.67,1394.09 3568.78,1403.01 3590.79,1411.80 3610.10,1419.40 3626.66,1426.08 3658.65,1438.63 3689.54,1450.82 3725.75,1464.99 3753.67,1475.56 3783.83,1487.29 3807.59,1496.87 3827.18,1504.61 3847.45,1513.01 3867.18,1520.98 3885.30,1528.65 3903.78,1535.99 3927.70,1545.51 3956.56,1556.87 3984.01,1567.74 4007.45,1577.12 4038.86,1589.38 4060.03,1597.80 4082.57,1606.75"/>
        <lane id="107.0_1" index="1" speed="13.89" length="1184.16" width="3.66" shape="2980.51,1173.54 3000.48,1181.44 3013.97,1186.69 3027.18,1192.00 3048.80,1200.63 3066.36,1207.54 3080.26,1213.15 3105.08,1223.03 3125.11,1230.98 3147.65,1239.78 3167.14,1247.59 3188.83,1256.09 3206.15,1263.08 3230.21,1272.50 3253.28,1281.64 3278.62,1291.74 3301.66,1300.85 3330.68,1312.43 3357.93,1323.22 3384.24,1333.64 3401.36,1340.52 3423.98,1349.39 3446.33,1358.34 3463.56,1365.14 3484.13,1373.19 3501.21,1380.08 3520.62,1387.76 3545.32,1397.49 3567.42,1406.40 3589.44,1415.20 3608.75,1422.80 3625.31,1429.48 3657.31,1442.04 3688.20,1454.23 3724.44,1468.40 3752.36,1478.97 3782.48,1490.69 3806.23,1500.27 3825.81,1508.01 3846.06,1516.40 3865.78,1524.36 3883.91,1532.04 3902.43,1539.39 3926.35,1548.91 3955.21,1560.27 3982.66,1571.14 4006.10,1580.52 4037.52,1592.79 4058.68,1601.20 4081.22,1610.15"/>
    </edge>
    <edge id="108.0" from="node_108_start" to="node_106_start" priority="-1" type="town" shape="1131.68,441.58 1150.16,448.72 1179.24,460.31 1214.20,474.31 1241.23,484.98 1277.45,499.27 1312.55,513.34 1345.06,526.26 1373.20,537.44 1404.52,549.89 1426.68,558.60">
        <lane id="108.0_0" index="0" speed="13.89" length="317.08" width="3.66" shape="1133.81,436.52 1152.17,443.61 1181.28,455.21 1216.23,469.21 1243.25,479.88 1279.48,494.17 1314.59,508.24 1347.09,521.16 1375.23,532.34 1406.54,544.79 1428.56,553.44"/>
        <lane id="108.0_1" index="1" speed="13.89" length="317.08" width="3.66" shape="1132.49,439.94 1150.83,447.02 1179.92,458.61 1214.88,472.61 1241.90,483.28 1278.13,497.57 1313.23,511.64 1345.74,524.56 1373.88,535.74 1405.19,548.19 1427.22,556.85"/>
    </edge>
    <edge id="109.0" from="node_109_start" to="node_109_end" priority="-1" type="town" shape="2944.49,1131.46 2970.81,1137.85 2981.65,1140.97 2992.46,1143.92 2998.76,1146.17 3009.05,1150.09">
        <lane id="109.0_0" index="0" speed="13.89" length="67.34" width="3.66" shape="2945.07,1129.72 2971.28,1136.08 2982.14,1139.21 2993.01,1142.18 2999.39,1144.46 3009.70,1148.38"/>
    </edge>
    <edge id="110.0" from="node_110_start" to="node_110_end" priority="-1" type="town" shape="7881.27,3182.44 7905.61,3192.51 7921.64,3199.45 7937.07,3206.25 7954.98,3214.21">
        <lane id="110.0_0" index="0" speed="13.89" length="80.04" width="3.66" shape="7883.52,3177.43 7907.75,3187.46 7923.84,3194.42 7939.29,3201.23 7957.06,3209.13"/>
        <lane id="110.0_1" index="1" speed="13.89" length="80.04" width="3.66" shape="7882.12,3180.81 7906.32,3190.83 7922.37,3197.78 7937.81,3204.58 7955.58,3212.48"/>
    </edge>
    <edge id="111.0" from="node_111_start" to="j_merge_start_48" priority="-1" type="town" shape="8052.38,3261.19 8073.36,3270.49 8094.36,3279.80">
        <lane id="111.0_0" index="0" speed="13.89" length="45.79" width="3.66" shape="8056.21,3252.88 8077.07,3262.13 8098.07,3271.44"/>
        <lane id="111.0_1" index="1" speed="13.89" length="45.79" width="3.66" shape="8054.73,3256.23 8075.58,3265.47 8096.59,3274.78"/>
        <lane id="111.0_2" index="2" speed="13.89" length="45.79" width="3.66" shape="8053.24,3259.57 8074.10,3268.82 8095.10,3278.13"/>
    </edge>
    <edge id="112.0" from="node_112_start" to="node_112_end" priority="-1" type="town" shape="5850.59,2314.50 5873.28,2323.73 5892.09,2331.06 5902.92,2335.37">
        <lane id="112.0_0" index="0" speed="13.89" length="56.04" width="3.66" shape="5852.77,2309.46 5875.31,2318.63 5894.10,2325.95 5904.81,2330.22"/>
        <lane id="112.0_1" index="1" speed="13.89" length="56.04" width="3.66" shape="5851.40,2312.85 5873.96,2322.03 5892.76,2329.36 5903.46,2333.62"/>
    </edge>
    <edge id="113.0" from="node_113_start" to="node_113_end" priority="-1" type="town" shape="7069.84,2831.37 7094.59,2842.17 7103.96,2846.28 7116.59,2851.78">
        <lane id="113.0_0" index="0" speed="13.89" length="50.72" width="3.66" shape="7072.18,2826.40 7096.79,2837.14 7106.16,2841.25 7118.66,2846.70"/>
        <lane id="113.0_1" index="1" speed="13.89" length="50.72" width="3.66" shape="7070.72,2829.76 7095.32,2840.50 7104.69,2844.61 7117.20,2850.05"/>
    </edge>
    <edge id="114.0" from="node_114_start" to="node_112_start" priority="-1" type="town" shape="5779.45,2286.12 5793.45,2292.00 5815.97,2300.89 5850.59,2314.50">
        <lane id="114.0_0" index="0" speed="13.89" length="76.39" width="3.66" shape="5781.58,2281.06 5795.52,2286.92 5817.98,2295.78 5852.48,2309.35"/>
        <lane id="114.0_1" index="1" speed="13.89" length="76.39" width="3.66" shape="5780.16,2284.44 5794.14,2290.31 5816.64,2299.19 5851.14,2312.75"/>
    </edge>
    <edge id="115.0" from="node_115_start" to="node_115_end" priority="-1" type="town" shape="6112.28,2418.46 6131.84,2426.36 6168.00,2440.69 6203.70,2454.90 6241.34,2469.67 6275.46,2483.52 6309.66,2497.44 6350.93,2514.77 6389.46,2531.23 6423.48,2546.18 6467.59,2565.10 6507.29,2582.36 6552.07,2602.19 6583.19,2616.49 6640.02,2641.65 6695.77,2666.24 6747.71,2689.04 6816.04,2719.22">
        <lane id="115.0_0" index="0" speed="13.89" length="765.26" width="3.66" shape="6114.46,2413.42 6133.88,2421.27 6170.03,2435.59 6205.72,2449.80 6243.38,2464.57 6277.53,2478.44 6311.76,2492.37 6353.07,2509.72 6391.64,2526.20 6425.67,2541.15 6469.77,2560.06 6509.50,2577.34 6554.33,2597.19 6585.45,2611.49 6642.24,2636.63 6697.98,2661.22 6749.92,2684.02 6818.12,2714.14"/>
        <lane id="115.0_1" index="1" speed="13.89" length="765.26" width="3.66" shape="6113.09,2416.82 6132.52,2424.66 6168.68,2438.99 6204.37,2453.20 6242.02,2467.97 6276.15,2481.83 6310.36,2495.75 6351.64,2513.09 6390.19,2529.55 6424.21,2544.50 6468.32,2563.42 6508.03,2580.69 6552.82,2600.52 6583.94,2614.82 6640.76,2639.98 6696.51,2664.57 6748.45,2687.37 6816.64,2717.49"/>
    </edge>
    <edge id="116.0" from="node_112_end" to="node_115_start" priority="-1" type="town" shape="5902.92,2335.37 5929.22,2345.89 5987.29,2368.84 6021.19,2382.23 6048.61,2393.08 6086.14,2408.06 6105.62,2415.83 6112.28,2418.46">
        <lane id="116.0_0" index="0" speed="13.89" length="224.95" width="3.66" shape="5905.10,2330.33 5931.25,2340.79 5989.31,2363.74 6023.21,2377.13 6050.64,2387.98 6088.17,2402.96 6107.65,2410.73 6114.17,2413.31"/>
        <lane id="116.0_1" index="1" speed="13.89" length="224.95" width="3.66" shape="5903.74,2333.73 5929.90,2344.19 5987.96,2367.14 6021.86,2380.53 6049.29,2391.38 6086.82,2406.36 6106.30,2414.13 6112.83,2416.71"/>
    </edge>
    <edge id="117.0" from="node_115_end" to="node_113_start" priority="-1" type="town" shape="6816.04,2719.22 6845.52,2732.19 6872.71,2744.31 6917.49,2764.01 6981.16,2792.07 7005.22,2802.65 7016.63,2807.78 7028.49,2812.90 7048.91,2822.01 7059.33,2826.72 7069.84,2831.37">
        <lane id="117.0_0" index="0" speed="13.89" length="277.17" width="3.66" shape="6818.39,2714.26 6847.74,2727.17 6874.93,2739.29 6919.70,2758.99 6983.37,2787.05 7007.45,2797.64 7018.84,2802.76 7030.70,2807.88 7051.16,2817.00 7061.57,2821.71 7071.92,2826.29"/>
        <lane id="117.0_1" index="1" speed="13.89" length="277.17" width="3.66" shape="6816.92,2717.61 6846.26,2730.52 6873.45,2742.64 6918.23,2762.34 6981.90,2790.40 7005.96,2800.98 7017.37,2806.11 7029.23,2811.23 7049.66,2820.34 7060.08,2825.05 7070.44,2829.64"/>
    </edge>
    <edge id="813.0" from="node_113_end" to="node_813_end" priority="-1" type="town" shape="7116.59,2851.78 7130.63,2858.03 7148.49,2865.96 7167.20,2874.20 7179.04,2879.48 7195.08,2886.55 7206.42,2891.48 7217.32,2896.33 7234.04,2903.74 7245.41,2908.73 7266.71,2918.16 7283.13,2925.35 7300.42,2932.94 7317.97,2940.68 7330.84,2946.41 7350.71,2955.14 7367.37,2962.53 7379.31,2967.74 7401.07,2977.32 7416.46,2984.06 7432.91,2991.35 7438.06,2993.67 7452.31,3000.00 7455.26,3001.34">
        <lane id="813.0_0" index="0" speed="13.89" length="369.97" width="3.66" shape="7118.94,2846.82 7132.86,2853.02 7150.71,2860.94 7169.42,2869.18 7181.26,2874.46 7197.28,2881.52 7208.63,2886.46 7219.55,2891.31 7236.26,2898.72 7247.63,2903.71 7268.92,2913.14 7285.33,2920.32 7302.63,2927.92 7320.19,2935.66 7333.06,2941.39 7352.93,2950.12 7369.58,2957.51 7381.52,2962.72 7403.28,2972.30 7418.67,2979.04 7435.14,2986.34 7440.30,2988.66 7454.55,2994.99 7457.39,2996.28"/>
        <lane id="813.0_1" index="1" speed="13.89" length="369.97" width="3.66" shape="7117.46,2850.17 7131.37,2856.36 7149.23,2864.29 7167.94,2872.53 7179.78,2877.81 7195.81,2884.88 7207.16,2889.81 7218.06,2894.66 7234.78,2902.07 7246.15,2907.06 7267.45,2916.49 7283.86,2923.68 7301.16,2931.27 7318.71,2939.01 7331.58,2944.74 7351.45,2953.47 7368.11,2960.86 7380.05,2966.07 7401.81,2975.65 7417.20,2982.39 7433.65,2989.68 7438.81,2992.00 7453.06,2998.33 7455.88,2999.61"/>
    </edge>
    <edge id="814.0" from="node_813_end" to="node_814_end" priority="-1" type="town" shape="7455.26,3001.34 7473.51,3009.59 7495.83,3019.53 7539.28,3038.35 7581.38,3055.95">
        <lane id="814.0_0" index="0" speed="13.89" length="137.03" width="3.66" shape="7457.66,2996.40 7475.76,3004.58 7498.04,3014.51 7541.43,3033.30 7583.35,3050.83"/>
        <lane id="814.0_1" index="1" speed="13.89" length="137.03" width="3.66" shape="7456.15,2999.74 7474.26,3007.92 7496.57,3017.86 7540.00,3036.67 7581.94,3054.20"/>
    </edge>
    <edge id="815.0" from="node_814_end" to="node_110_start" priority="-1" type="town" shape="7581.38,3055.95 7600.82,3063.96 7622.94,3073.21 7648.76,3083.70 7687.83,3100.13 7726.10,3116.46 7759.46,3131.13 7792.73,3145.35 7822.97,3158.06 7842.27,3166.00 7866.10,3176.00 7881.27,3182.44">
        <lane id="815.0_0" index="0" speed="13.89" length="325.20" width="3.66" shape="7583.62,3050.94 7602.92,3058.89 7625.03,3068.14 7650.86,3078.63 7689.97,3095.08 7728.28,3111.43 7761.64,3126.10 7794.87,3140.30 7825.08,3152.99 7844.38,3160.93 7868.23,3170.94 7883.26,3177.32"/>
        <lane id="815.0_1" index="1" speed="13.89" length="325.20" width="3.66" shape="7582.22,3054.32 7601.52,3062.27 7623.64,3071.52 7649.46,3082.01 7688.54,3098.45 7726.83,3114.78 7760.19,3129.45 7793.44,3143.67 7823.67,3156.37 7842.97,3164.31 7866.81,3174.32 7881.83,3180.69"/>
    </edge>
    <edge id="816.0" from="node_106_end" to="junction_104" priority="-1" type="town" shape="2641.97,1041.27 2658.22,1047.54 2684.88,1058.10">
        <lane id="816.0_0" index="0" speed="13.89" length="45.95" width="3.66" shape="2644.11,1036.21 2660.22,1042.43 2686.90,1053.00"/>
        <lane id="816.0_1" index="1" speed="13.89" length="45.95" width="3.66" shape="2642.79,1039.63 2658.89,1045.84 2685.55,1056.40"/>
    </edge>
    <edge id="818.0" from="junction_104" to="node_818_end" priority="-1" type="town" shape="2754.92,1085.79 2767.32,1090.63 2790.14,1099.67 2806.46,1106.24 2821.91,1112.45 2864.53,1129.44 2887.28,1138.46 2893.01,1140.65">
        <lane id="818.0_0" index="0" speed="13.89" length="136.03" width="3.66" shape="2768.47,1085.19 2769.33,1085.52 2792.17,1094.57 2808.51,1101.15 2823.95,1107.36 2866.56,1124.34 2889.29,1133.35 2894.84,1135.47"/>
        <lane id="818.0_1" index="1" speed="13.89" length="136.03" width="3.66" shape="2767.13,1088.60 2767.99,1088.93 2790.82,1097.97 2807.14,1104.54 2822.59,1110.75 2865.21,1127.74 2887.95,1136.76 2893.53,1138.89"/>
    </edge>
    <edge id="823.0" from="junction_104" to="node_109_start" priority="-1" type="town" shape="2757.14,1079.57 2758.14,1079.89 2759.71,1080.37 2761.81,1080.99 2764.42,1081.74 2767.50,1082.63 2771.04,1083.64 2774.98,1084.76 2779.32,1085.98 2784.01,1087.30 2789.03,1088.71 2794.35,1090.20 2799.94,1091.76 2805.76,1093.39 2811.80,1095.06 2818.01,1096.79 2824.37,1098.56 2830.85,1100.35 2837.42,1102.17 2844.05,1104.01 2850.71,1105.85 2857.38,1107.69 2864.01,1109.51 2870.58,1111.33 2877.07,1113.11 2883.43,1114.86 2889.65,1116.57 2895.69,1118.23 2901.52,1119.83 2907.12,1121.36 2912.44,1122.81 2917.47,1124.19 2922.18,1125.47 2926.53,1126.65 2930.49,1127.73 2934.03,1128.69 2937.13,1129.52 2939.76,1130.23 2941.88,1130.79 2943.47,1131.20 2944.49,1131.46">
        <lane id="823.0_0" index="0" speed="13.89" length="181.58" width="3.66" shape="2769.75,1081.37 2771.54,1081.88 2775.48,1083.00 2779.82,1084.22 2784.51,1085.54 2789.52,1086.95 2794.84,1088.44 2800.43,1090.00 2806.25,1091.63 2812.29,1093.30 2818.50,1095.03 2824.86,1096.80 2831.34,1098.59 2837.91,1100.41 2844.54,1102.25 2851.20,1104.09 2857.87,1105.93 2864.50,1107.75 2871.07,1109.57 2877.55,1111.35 2883.92,1113.10 2890.14,1114.81 2896.17,1116.47 2902.00,1118.07 2907.60,1119.60 2912.92,1121.05 2917.95,1122.43 2922.66,1123.71 2927.01,1124.89 2930.97,1125.97 2934.51,1126.93 2937.60,1127.76 2940.23,1128.46 2942.34,1129.02 2943.93,1129.43 2944.79,1129.65"/>
    </edge>
    <edge id="824.0" from="node_818_end" to="node_107_start" priority="-1" type="town" shape="2893.01,1140.65 2894.84,1141.36 2897.46,1142.39 2900.79,1143.70 2904.73,1145.27 2909.21,1147.04 2914.13,1149.00 2919.40,1151.10 2924.93,1153.31 2930.64,1155.59 2936.44,1157.90 2942.24,1160.22 2947.95,1162.50 2953.48,1164.71 2958.75,1166.82 2963.66,1168.78 2968.13,1170.57 2972.08,1172.15 2975.40,1173.47 2978.02,1174.52 2979.84,1175.24">
        <lane id="824.0_0" index="0" speed="13.89" length="93.35" width="3.66" shape="2895.13,1135.59 2896.84,1136.25 2899.47,1137.28 2902.81,1138.60 2906.75,1140.17 2911.23,1141.94 2916.16,1143.90 2921.43,1146.00 2926.97,1148.21 2932.67,1150.49 2938.48,1152.80 2944.28,1155.12 2949.99,1157.40 2955.52,1159.62 2960.79,1161.73 2965.70,1163.69 2970.17,1165.48 2974.11,1167.05 2977.43,1168.37 2980.05,1169.42 2981.86,1170.14"/>
        <lane id="824.0_1" index="1" speed="13.89" length="93.35" width="3.66" shape="2893.80,1139.00 2895.51,1139.66 2898.13,1140.69 2901.46,1142.00 2905.40,1143.57 2909.88,1145.34 2914.81,1147.30 2920.08,1149.40 2925.61,1151.61 2931.32,1153.89 2937.12,1156.20 2942.92,1158.52 2948.63,1160.80 2954.16,1163.01 2959.43,1165.12 2964.34,1167.08 2968.81,1168.87 2972.76,1170.45 2976.08,1171.77 2978.70,1172.82 2980.51,1173.54"/>
    </edge>