<?xml version='1.0' encoding='utf-8'?>
<edges>
    <edge id="106.0" from="node_106_start" to="node_106_end" numLanes="2" speed="13.89" type="town" shape="572891.43,3261363.44 572910.64,3261371.16 572910.64,3261371.16 572945.50,3261384.80 572945.50,3261384.80 572995.44,3261404.62 572995.44,3261404.62 573041.05,3261422.77 573041.05,3261422.77 573075.54,3261436.47 573075.54,3261436.47 573110.11,3261450.23 573110.11,3261450.23 573150.24,3261466.17 573150.24,3261466.17 573188.74,3261481.48 573188.74,3261481.48 573222.66,3261494.98 573222.66,3261494.98 573256.58,3261508.43 573256.58,3261508.43 573283.97,3261519.18 573283.97,3261519.18 573311.05,3261530.09 573311.05,3261530.09 573342.38,3261542.42 573342.38,3261542.42 573380.71,3261557.67 573380.71,3261557.67 573416.21,3261571.83 573416.21,3261571.83 573449.02,3261584.65 573449.02,3261584.65 573475.31,3261595.23 573475.31,3261595.23 573503.19,3261606.22 573503.19,3261606.22 573533.29,3261618.13 573533.29,3261618.13 573568.38,3261632.15 573568.38,3261632.15 573596.36,3261643.27 573596.36,3261643.27 573630.62,3261656.90 573630.62,3261656.90 573658.18,3261667.78 573658.18,3261667.78 573691.56,3261681.09 573691.56,3261681.09 573714.97,3261690.36 573714.97,3261690.36 573748.69,3261703.76 573748.69,3261703.76 573784.53,3261717.97 573784.53,3261717.97 573819.10,3261731.62 573819.10,3261731.62 573847.50,3261742.87 573847.50,3261742.87 573885.39,3261758.05 573885.39,3261758.05 573914.37,3261769.55 573914.37,3261769.55 573956.97,3261786.49 573956.97,3261786.49 573995.25,3261801.60 573995.25,3261801.60 574027.71,3261814.52 574027.71,3261814.52 574071.07,3261831.71 574071.07,3261831.71 574086.28,3261837.88 574086.28,3261837.88 574106.72,3261846.11">
        <lane index="0" width="3.66" />
        <lane index="1" width="3.66" />
    </edge>
    <edge id="107.0" from="node_107_start" to="node_107_end" numLanes="2" speed="13.89" type="town" shape="574444.59,3261980.08 574464.56,3261987.98 574464.56,3261987.98 574478.05,3261993.23 574478.05,3261993.23 574491.25,3261998.54 574491.25,3261998.54 574512.88,3262007.17 574512.88,3262007.17 574530.43,3262014.08 574530.43,3262014.08 574544.33,3262019.69 574544.33,3262019.69 574569.15,3262029.57 574569.15,3262029.57 574589.19,3262037.52 574589.19,3262037.52 574611.73,3262046.32 574611.73,3262046.32 574631.22,3262054.13 574631.22,3262054.13 574652.90,3262062.63 574652.90,3262062.63 574670.22,3262069.62 574670.22,3262069.62 574694.29,3262079.04 574694.29,3262079.04 574717.35,3262088.18 574717.35,3262088.18 574742.69,3262098.28 574742.69,3262098.28 574765.73,3262107.39 574765.73,3262107.39 574794.75,3262118.97 574794.75,3262118.97 574822.01,3262129.76 574822.01,3262129.76 574848.31,3262140.18 574848.31,3262140.18 574865.43,3262147.06 574865.43,3262147.06 574888.06,3262155.93 574888.06,3262155.93 574910.40,3262164.88 574910.40,3262164.88 574927.64,3262171.68 574927.64,3262171.68 574948.20,3262179.73 574948.20,3262179.73 574965.28,3262186.62 574965.28,3262186.62 574984.70,3262194.30 574984.70,3262194.30 575009.39,3262204.03 575009.39,3262204.03 575031.49,3262212.94 575031.49,3262212.94 575053.52,3262221.74 575053.52,3262221.74 575072.82,3262229.34 575072.82,3262229.34 575089.38,3262236.02 575089.38,3262236.02 575121.39,3262248.58 575121.39,3262248.58 575152.28,3262260.77 575152.28,3262260.77 575188.53,3262274.95 575188.53,3262274.95 575216.45,3262285.52 575216.45,3262285.52 575246.56,3262297.23 575246.56,3262297.23 575270.30,3262306.81 575270.30,3262306.81 575289.87,3262314.54 575289.87,3262314.54 575310.12,3262322.93 575310.12,3262322.93 575329.83,3262330.89 575329.83,3262330.89 575347.97,3262338.57 575347.97,3262338.57 575366.50,3262345.93 575366.50,3262345.93 575390.43,3262355.45 575390.43,3262355.45 575419.29,3262366.81 575419.29,3262366.81 575446.73,3262377.68 575446.73,3262377.68 575470.18,3262387.06 575470.18,3262387.06 575501.60,3262399.33 575501.60,3262399.33 575522.75,3262407.74 575522.75,3262407.74 575545.43,3262416.74">
        <lane index="0" width="3.66" />
        <lane index="1" width="3.66" />
    </edge>
    <edge id="108.0" from="node_108_start" to="node_106_start" numLanes="2" speed="13.89" type="town" shape="572596.43,3261246.42 572614.91,3261253.56 572614.91,3261253.56 572643.99,3261265.15 572643.99,3261265.15 572678.95,3261279.15 572678.95,3261279.15 572705.98,3261289.82 572705.98,3261289.82 572742.20,3261304.11 572742.20,3261304.11 572777.30,3261318.18 572777.30,3261318.18 572809.81,3261331.10 572809.81,3261331.10 572837.95,3261342.28 572837.95,3261342.28 572869.27,3261354.73 572869.27,3261354.73 572891.43,3261363.44">
        <lane index="0" width="3.66" />
        <lane index="1" width="3.66" />
    </edge>
    <edge id="109.0" from="node_109_start" to="node_109_end" numLanes="1" speed="13.89" type="town" shape="574409.24,3261936.30 574435.56,3261942.69 574435.56,3261942.69 574446.40,3261945.81 574446.40,3261945.81 574457.21,3261948.76 574457.21,3261948.76 574463.51,3261951.01 574463.51,3261951.01 574473.80,3261954.93">
        <lane index="0" width="3.66" />
    </edge>
    <edge id="110.0" from="node_110_start" to="node_110_end" numLanes="2" speed="13.89" type="town" shape="579346.02,3263987.28 579370.36,3263997.35 579370.36,3263997.35 579386.39,3264004.29 579386.39,3264004.29 579401.82,3264011.09 579401.82,3264011.09 579419.73,3264019.05">
        <lane index="0" width="3.66" />
        <lane index="1" width="3.66" />
    </edge>
    <edge id="111.0" from="node_111_start" to="j_merge_start_48" numLanes="3" speed="13.89" type="town" shape="579517.13,3264066.03 579538.11,3264075.33 579538.11,3264075.33 579559.11,3264084.64">
        <lane index="0" width="3.66" />
        <lane index="1" width="3.66" />
        <lane index="2" width="3.66" />
    </edge>
    <edge id="112.0" from="node_112_start" to="node_112_end" numLanes="2" speed="13.89" type="town" shape="577315.34,3263119.34 577338.03,3263128.57 577338.03,3263128.57 577356.84,3263135.90 577356.84,3263135.90 577367.67,3263140.21">
        <lane index="0" width="3.66" />
        <lane index="1" width="3.66" />
    </edge>
    <edge id="113.0" from="node_113_start" to="node_113_end" numLanes="2" speed="13.89" type="town" shape="578534.59,3263636.21 578559.34,3263647.01 578559.34,3263647.01 578568.71,3263651.12 578568.71,3263651.12 578581.34,3263656.62">
        <lane index="0" width="3.66" />
        <lane index="1" width="3.66" />
    </edge>
    <edge id="114.0" from="node_114_start" to="node_112_start" numLanes="2" speed="13.89" type="town" shape="577244.20,3263090.96 577258.20,3263096.84 577258.20,3263096.84 577280.72,3263105.73 577280.72,3263105.73 577315.34,3263119.34">
        <lane index="0" width="3.66" />
        <lane index="1" width="3.66" />
    </edge>
    <edge id="115.0" from="node_115_start" to="node_115_end" numLanes="2" speed="13.89" type="town" shape="577577.03,3263223.30 577596.59,3263231.20 577596.59,3263231.20 577632.75,3263245.53 577632.75,3263245.53 577668.45,3263259.74 577668.45,3263259.74 577706.09,3263274.51 577706.09,3263274.51 577740.21,3263288.36 577740.21,3263288.36 577774.41,3263302.28 577774.41,3263302.28 577815.68,3263319.61 577815.68,3263319.61 577854.21,3263336.07 577854.21,3263336.07 577888.23,3263351.02 577888.23,3263351.02 577932.34,3263369.94 577932.34,3263369.94 577972.04,3263387.20 577972.04,3263387.20 578016.82,3263407.03 578016.82,3263407.03 578047.94,3263421.33 578047.94,3263421.33 578104.77,3263446.49 578104.77,3263446.49 578160.52,3263471.08 578160.52,3263471.08 578212.46,3263493.88 578212.46,3263493.88 578280.79,3263524.06">
        <lane index="0" width="3.66" />
        <lane index="1" width="3.66" />
    </edge>
    <edge id="116.0" from="node_112_end" to="node_115_start" numLanes="2" speed="13.89" type="town" shape="577367.67,3263140.21 577393.97,3263150.73 577393.97,3263150.73 577452.04,3263173.68 577452.04,3263173.68 577485.94,3263187.07 577485.94,3263187.07 577513.36,3263197.92 577513.36,3263197.92 577550.89,3263212.90 577550.89,3263212.90 577570.37,3263220.67 577570.37,3263220.67 577577.03,3263223.30">
        <lane index="0" width="3.66" />
        <lane index="1" width="3.66" />
    </edge>
    <edge id="117.0" from="node_115_end" to="node_113_start" numLanes="2" speed="13.89" type="town" shape="578280.79,3263524.06 578310.27,3263537.03 578310.27,3263537.03 578337.46,3263549.15 578337.46,3263549.15 578382.24,3263568.85 578382.24,3263568.85 578445.91,3263596.91 578445.91,3263596.91 578469.97,3263607.49 578469.97,3263607.49 578481.38,3263612.62 578481.38,3263612.62 578493.24,3263617.74 578493.24,3263617.74 578513.66,3263626.85 578513.66,3263626.85 578524.08,3263631.56 578524.08,3263631.56 578534.59,3263636.21">
        <lane index="0" width="3.66" />
        <lane index="1" width="3.66" />
    </edge>
    <edge id="813.0" from="node_113_end" to="node_813_end" numLanes="2" speed="13.89" type="town" shape="578581.34,3263656.62 578595.38,3263662.87 578595.38,3263662.87 578613.24,3263670.80 578613.24,3263670.80 578631.95,3263679.04 578631.95,3263679.04 578643.79,3263684.32 578643.79,3263684.32 578659.83,3263691.39 578659.83,3263691.39 578671.17,3263696.32 578671.17,3263696.32 578682.07,3263701.17 578682.07,3263701.17 578698.79,3263708.58 578698.79,3263708.58 578710.16,3263713.57 578710.16,3263713.57 578731.46,3263723.00 578731.46,3263723.00 578747.88,3263730.19 578747.88,3263730.19 578765.17,3263737.78 578765.17,3263737.78 578782.72,3263745.52 578782.72,3263745.52 578795.59,3263751.25 578795.59,3263751.25 578815.46,3263759.98 578815.46,3263759.98 578832.12,3263767.37 578832.12,3263767.37 578844.06,3263772.58 578844.06,3263772.58 578865.82,3263782.16 578865.82,3263782.16 578881.21,3263788.90 578881.21,3263788.90 578897.66,3263796.19 578897.66,3263796.19 578902.81,3263798.51 578902.81,3263798.51 578917.06,3263804.84 578917.06,3263804.84 578920.01,3263806.18">
        <lane index="0" width="3.66" />
        <lane index="1" width="3.66" />
    </edge>
    <edge id="814.0" from="node_813_end" to="node_814_end" numLanes="2" speed="13.89" type="town" shape="578920.01,3263806.18 578938.26,3263814.43 578938.26,3263814.43 578960.58,3263824.37 578960.58,3263824.37 579004.03,3263843.19 579004.03,3263843.19 579046.13,3263860.79">
        <lane index="0" width="3.66" />
        <lane index="1" width="3.66" />
    </edge>
    <edge id="815.0" from="node_814_end" to="node_110_start" numLanes="2" speed="13.89" type="town" shape="579046.13,3263860.79 579065.57,3263868.80 579065.57,3263868.80 579087.69,3263878.05 579087.69,3263878.05 579113.51,3263888.54 579113.51,3263888.54 579152.58,3263904.97 579152.58,3263904.97 579190.85,3263921.30 579190.85,3263921.30 579224.21,3263935.97 579224.21,3263935.97 579257.48,3263950.19 579257.48,3263950.19 579287.72,3263962.90 579287.72,3263962.90 579307.02,3263970.84 579307.02,3263970.84 579330.85,3263980.84 579330.85,3263980.84 579346.02,3263987.28">
        <lane index="0" width="3.66" />
        <lane index="1" width="3.66" />
    </edge>
    <edge id="816.0" from="node_106_end" to="junction_104" numLanes="2" speed="13.89" type="town" shape="574106.72,3261846.11 574122.97,3261852.38 574122.97,3261852.38 574149.63,3261862.94">
        <lane index="0" width="3.66" />
        <lane index="1" width="3.66" />
    </edge>
    <edge id="818.0" from="junction_104" to="node_818_end" numLanes="2" speed="13.89" type="town" shape="574219.67,3261890.63 574232.07,3261895.47 574232.07,3261895.47 574254.89,3261904.51 574254.89,3261904.51 574271.21,3261911.08 574271.21,3261911.08 574286.66,3261917.29 574286.66,3261917.29 574329.28,3261934.28 574329.28,3261934.28 574352.03,3261943.30 574352.03,3261943.30 574357.76,3261945.49">
        <lane index="0" width="3.66" />
        <lane index="1" width="3.66" />
    </edge>
    <edge id="823.0" from="junction_104" to="node_109_start" numLanes="1" speed="13.89" type="town" shape="574221.89,3261884.41 574222.89,3261884.73 574222.89,3261884.73 574224.46,3261885.21 574224.46,3261885.21 574226.56,3261885.83 574226.56,3261885.83 574229.17,3261886.58 574229.17,3261886.58 574232.25,3261887.47 574232.25,3261887.47 574235.79,3261888.48 574235.79,3261888.48 574239.73,3261889.60 574239.73,3261889.60 574244.07,3261890.82 574244.07,3261890.82 574248.76,3261892.14 574248.76,3261892.14 574253.78,3261893.55 574253.78,3261893.55 574259.10,3261895.04 574259.10,3261895.04 574264.69,3261896.60 574264.69,3261896.60 574270.51,3261898.23 574270.51,3261898.23 574276.55,3261899.90 574276.55,3261899.90 574282.76,3261901.63 574282.76,3261901.63 574289.12,3261903.40 574289.12,3261903.40 574295.60,3261905.19 574295.60,3261905.19 574302.17,3261907.01 574302.17,3261907.01 574308.80,3261908.85 574308.80,3261908.85 574315.46,3261910.69 574315.46,3261910.69 574322.13,3261912.53 574322.13,3261912.53 574328.76,3261914.35 574328.76,3261914.35 574335.33,3261916.17 574335.33,3261916.17 574341.82,3261917.95 574341.82,3261917.95 574348.18,3261919.70 574348.18,3261919.70 574354.40,3261921.41 574354.40,3261921.41 574360.44,3261923.07 574360.44,3261923.07 574366.27,3261924.67 574366.27,3261924.67 574371.87,3261926.20 574371.87,3261926.20 574377.19,3261927.65 574377.19,3261927.65 574382.22,3261929.03 574382.22,3261929.03 574386.93,3261930.31 574386.93,3261930.31 574391.28,3261931.49 574391.28,3261931.49 574395.24,3261932.57 574395.24,3261932.57 574398.78,3261933.53 574398.78,3261933.53 574401.88,3261934.36 574401.88,3261934.36 574404.51,3261935.07 574404.51,3261935.07 574406.63,3261935.63 574406.63,3261935.63 574408.22,3261936.04 574408.22,3261936.04 574409.24,3261936.30">
        <lane index="0" width="3.66" />
    </edge>
    <edge id="824.0" from="node_818_end" to="node_107_start" numLanes="2" speed="13.89" type="town" shape="574357.76,3261945.49 574359.59,3261946.20 574359.59,3261946.20 574362.21,3261947.23 574362.21,3261947.23 574365.54,3261948.54 574365.54,3261948.54 574369.48,3261950.11 574369.48,3261950.11 574373.96,3261951.88 574373.96,3261951.88 574378.88,3261953.84 574378.88,3261953.84 574384.15,3261955.94 574384.15,3261955.94 574389.68,3261958.15 574389.68,3261958.15 574395.39,3261960.43 574395.39,3261960.43 574401.19,3261962.74 574401.19,3261962.74 574406.99,3261965.06 574406.99,3261965.06 574412.70,3261967.34 574412.70,3261967.34 574418.23,3261969.55 574418.23,3261969.55 574423.50,3261971.66 574423.50,3261971.66 574428.41,3261973.62 574428.41,3261973.62 574432.88,3261975.41 574432.88,3261975.41 574436.83,3261976.99 574436.83,3261976.99 574440.15,3261978.31 574440.15,3261978.31 574442.77,3261979.36 574442.77,3261979.36 574444.59,3261980.08">
        <lane index="0" width="3.66" />
        <lane index="1" width="3.66" />
    </edge>
    <edge id="825.0" from="node_825_start" to="node_114_start" numLanes="2" speed="13.89" type="town" shape="575967.53,3262584.44 575981.85,3262590.08 575981.85,3262590.08 576018.53,3262604.71 576018.53,3262604.71 576072.99,3262626.27 576072.99,3262626.27 576110.45,3262641.14 576110.45,3262641.14 576154.64,3262658.73 576154.64,3262658.73 576199.98,3262676.68 576199.98,3262676.68 576238.54,3262692.09 576238.54,3262692.09 576260.83,3262700.80 576260.83,3262700.80 576290.62,3262712.62 576290.62,3262712.62 576331.80,3262729.04 576331.80,3262729.04 576374.41,3262745.75 576374.41,3262745.75 576409.77,3262759.99 576409.77,3262759.99 576442.61,3262772.99 576442.61,3262772.99 576496.25,3262794.22 576496.25,3262794.22 576541.63,3262812.22 576541.63,3262812.22 576589.93,3262831.46 576589.93,3262831.46 576637.57,3262850.49 576637.57,3262850.49 576686.85,3262869.99 576686.85,3262869.99 576727.37,3262886.09 576727.37,3262886.09 576780.15,3262907.09 576780.15,3262907.09 576825.34,3262924.95 576825.34,3262924.95 576882.58,3262947.72 576882.58,3262947.72 576937.48,3262969.41 576937.48,3262969.41 577007.24,3262997.12 577007.24,3262997.12 577049.87,3263013.99 577049.87,3263013.99 577069.82,3263022.07 577069.82,3263022.07 577090.23,3263030.08 577090.23,3263030.08 577103.82,3263035.42 577103.82,3263035.42 577121.69,3263042.50 577121.69,3263042.50 577140.64,3263049.88 577140.64,3263049.88 577174.45,3263063.48 577174.45,3263063.48 577209.82,3263077.53 577209.82,3263077.53 577229.73,3263085.40 577229.73,3263085.40 577238.29,3263088.72 577238.29,3263088.72 577244.20,3263090.96">
        <lane index="0" width="3.66" />
        <lane index="1" width="3.66" />
    </edge>
    <edge id="826.0" from="node_107_end" to="node_826_end" numLanes="2" speed="13.89" type="town" shape="575545.43,3262416.74 575569.53,3262426.34 575569.53,3262426.34 575599.88,3262438.39 575599.88,3262438.39 575621.69,3262447.01 575621.69,3262447.01 575652.50,3262459.32 575652.50,3262459.32 575692.30,3262475.22">
        <lane index="0" width="3.66" />
        <lane index="1" width="3.66" />
    </edge>
    <edge id="834.0" from="node_826_end" to="node_834_end" numLanes="3" speed="13.89" type="town" shape="575692.30,3262475.22 575697.17,3262477.16 575697.17,3262477.16 575699.29,3262478.00 575699.29,3262478.00 575701.74,3262478.97 575701.74,3262478.97 575704.52,3262480.08 575704.52,3262480.08 575707.60,3262481.30 575707.60,3262481.30 575710.97,3262482.64 575710.97,3262482.64 575714.63,3262484.09 575714.63,3262484.09 575718.55,3262485.65 575718.55,3262485.65 575722.73,3262487.31 575722.73,3262487.31 575727.15,3262489.06 575727.15,3262489.06 575731.80,3262490.91 575731.80,3262490.91 575736.66,3262492.84 575736.66,3262492.84 575741.73,3262494.85 575741.73,3262494.85 575746.99,3262496.94 575746.99,3262496.94 575752.42,3262499.09 575752.42,3262499.09 575758.02,3262501.31 575758.02,3262501.31 575763.77,3262503.60 575763.77,3262503.60 575769.65,3262505.93 575769.65,3262505.93 575775.66,3262508.32 575775.66,3262508.32 575781.78,3262510.75 575781.78,3262510.75 575788.00,3262513.21 575788.00,3262513.21 575794.30,3262515.72 575794.30,3262515.72 575800.68,3262518.25 575800.68,3262518.25 575807.11,3262520.80 575807.11,3262520.80 575813.59,3262523.37 575813.59,3262523.37 575820.10,3262525.95 575820.10,3262525.95 575826.64,3262528.55 575826.64,3262528.55 575833.18,3262531.14 575833.18,3262531.14 575839.71,3262533.73 575839.71,3262533.73 575846.22,3262536.32 575846.22,3262536.32 575852.70,3262538.89 575852.70,3262538.89 575859.14,3262541.44 575859.14,3262541.44 575865.51,3262543.97 575865.51,3262543.97 575871.81,3262546.47 575871.81,3262546.47 575874.82,3262547.67">
        <lane index="0" width="3.66" />
        <lane index="1" width="3.66" />
        <lane index="2" width="3.66" />
    </edge>
    <edge id="835.0" from="node_834_end" to="node_825_start" numLanes="2" speed="13.89" type="town" shape="575874.82,3262547.67 575878.03,3262548.94 575878.03,3262548.94 575884.15,3262551.37 575884.15,3262551.37 575890.16,3262553.75 575890.16,3262553.75 575896.05,3262556.09 575896.05,3262556.09 575901.80,3262558.37 575901.80,3262558.37 575907.39,3262560.59 575907.39,3262560.59 575912.83,3262562.75 575912.83,3262562.75 575918.09,3262564.83 575918.09,3262564.83 575923.15,3262566.84 575923.15,3262566.84 575928.02,3262568.77 575928.02,3262568.77 575932.67,3262570.62 575932.67,3262570.62 575937.09,3262572.37 575937.09,3262572.37 575941.27,3262574.03 575941.27,3262574.03 575945.19,3262575.58 575945.19,3262575.58 575948.85,3262577.03 575948.85,3262577.03 575952.22,3262578.37 575952.22,3262578.37 575955.30,3262579.59 575955.30,3262579.59 575958.08,3262580.69 575958.08,3262580.69 575960.53,3262581.66 575960.53,3262581.66 575962.65,3262582.50 575962.65,3262582.50 575967.53,3262584.44">
        <lane index="0" width="3.66" />
        <lane index="1" width="3.66" />
    </edge>
    <edge id="836.0" from="node_834_end" to="node_825_start" numLanes="1" speed="13.89" type="town" shape="575877.09,3262541.39 575889.65,3262546.80 575889.65,3262546.80 575949.61,3262573.37 575949.61,3262573.37 575962.50,3262578.91 575962.50,3262578.91 575968.87,3262581.42">
        <lane index="0" width="3.66" />
    </edge>
    <edge id="845.0" from="node_845_start" to="node_108_start" numLanes="2" speed="13.89" type="town" shape="571464.75,3260804.84 571504.85,3260820.71 571504.85,3260820.71 571546.03,3260837.16 571546.03,3260837.16 571574.72,3260848.69 571574.72,3260848.69 571615.37,3260864.92 571615.37,3260864.92 571650.25,3260878.69 571650.25,3260878.69 571690.56,3260894.70 571690.56,3260894.70 571732.09,3260910.68 571732.09,3260910.68 571776.29,3260926.62 571776.29,3260926.62 571815.03,3260940.40 571815.03,3260940.40 571844.13,3260950.59 571844.13,3260950.59 571881.39,3260964.12 571881.39,3260964.12 571917.60,3260977.54 571917.60,3260977.54 571950.41,3260990.15 571950.41,3260990.15 571983.73,3261003.34 571983.73,3261003.34 572010.16,3261013.82 572010.16,3261013.82 572039.20,3261025.17 572039.20,3261025.17 572054.56,3261031.28 572054.56,3261031.28 572070.14,3261037.54 572070.14,3261037.54 572092.82,3261046.53 572092.82,3261046.53 572120.68,3261057.44 572120.68,3261057.44 572151.88,3261069.92 572151.88,3261069.92 572188.70,3261084.48 572188.70,3261084.48 572236.94,3261103.71 572236.94,3261103.71 572276.66,3261119.51 572276.66,3261119.51 572326.14,3261139.10 572326.14,3261139.10 572373.70,3261158.07 572373.70,3261158.07 572420.07,3261176.43 572420.07,3261176.43 572465.89,3261194.47 572465.89,3261194.47 572503.96,3261209.60 572503.96,3261209.60 572527.06,3261218.84 572527.06,3261218.84 572550.24,3261227.87 572550.24,3261227.87 572573.69,3261237.38 572573.69,3261237.38 572596.43,3261246.42">
        <lane index="0" width="3.66" />
        <lane index="1" width="3.66" />
    </edge>
    <edge id="856.0" from="node_110_end" to="node_857_start" numLanes="2" speed="13.89" type="town" shape="579419.73,3264019.05 579439.51,3264027.70 579439.51,3264027.70 579454.92,3264034.56 579454.92,3264034.56 579469.10,3264040.82 579469.10,3264040.82 579471.90,3264042.07">
        <lane index="0" width="3.66" />
        <lane index="1" width="3.66" />
    </edge>
    <edge id="857.0" from="node_856_end" to="node_111_start" numLanes="3" speed="13.89" type="town" shape="579470.40,3264045.45 579485.95,3264052.36 579485.95,3264052.36 579501.56,3264059.24 579501.56,3264059.24 579517.13,3264066.03">
        <lane index="0" width="3.66" />
        <lane index="1" width="3.66" />
        <lane index="2" width="3.66" />
    </edge>
    <edge id="885.0" from="node_885_start" to="node_885_end" numLanes="1" speed="13.89" type="town" shape="579954.77,3264238.88 580001.78,3264260.51 580001.78,3264260.51 580074.28,3264293.38">
        <lane index="0" width="3.66" />
    </edge>
    <edge id="859.0" from="j_merge_end_48" to="node_859_end" numLanes="6" speed="13.89" type="town" shape="580210.31,3264375.68 580247.49,3264392.06 580247.49,3264392.06 580284.65,3264408.45 580284.65,3264408.45 580321.78,3264424.94">
        <lane index="0" width="3.66" type="shoulder" disallow="all" />
        <lane index="1" width="3.66" />
        <lane index="2" width="3.66" />
        <lane index="3" width="3.66" />
        <lane index="4" width="3.66" />
        <lane index="5" width="3.66" type="shoulder" disallow="all" />
    </edge>
    <edge id="886.0" from="node_885_end" to="j_merge_start_48" numLanes="1" speed="13.89" type="town" shape="580074.28,3264293.38 580080.80,3264296.36 580080.80,3264296.36 580095.14,3264303.01">
        <lane index="0" width="3.66" />
    </edge>
    <edge id="merge_zone_48" from="j_merge_start_48" to="j_merge_end_48" numLanes="4" speed="13.89" name="Merge zone 48" type="highway_merge" shape="579634.41,3264121.84 579634.41,3264121.84 579672.85,3264138.68 579672.85,3264138.68 579711.23,3264155.62 579711.23,3264155.62 579749.62,3264172.56 579749.62,3264172.56 579788.01,3264189.48 579788.01,3264189.48 579826.38,3264206.44 579826.38,3264206.44 579864.78,3264223.37 579864.78,3264223.37 579903.16,3264240.30 579903.16,3264240.30 579941.53,3264257.27 579941.53,3264257.27 579979.90,3264274.25 579979.90,3264274.25 580018.31,3264291.17 580018.31,3264291.17 580056.72,3264308.04 580056.72,3264308.04 580095.11,3264324.95 580095.11,3264324.95 580133.51,3264341.88 580133.51,3264341.88 580171.91,3264358.79">
        <lane index="0" width="3.66" />
        <lane index="1" width="3.66" />
        <lane index="2" width="3.66" />
        <lane index="3" width="3.66" />
    </edge>
</edges>