<?xml version="1.0" encoding="UTF-8"?>

<!-- generated on 2025-11-23 01:08:07 by Eclipse SUMO netedit Version 1.23.1
-->

<routes xmlns:xsi="http://www.w3.org/2001/XMLSchema-instance" xsi:noNamespaceSchemaLocation="http://sumo.dlr.de/xsd/routes_file.xsd">
    <!-- Routes -->
    <route id="av_route" edges="87.0 88.0 96.0 85.0 100.0 95.0 90.0 98.0 94.0 99.0 internal_8_101 92.0 89.0 86.0 91.0 97.0 938.0 939.0 940.0 942.0 943.0 941.0 839.0 843.0 841.0 848.0 105.0 104.0 844.0 846.0 845.0 108.0 106.0 816.0 818.0 824.0 107.0 826.0 834.0 836.0 825.0 114.0 112.0 116.0 115.0 117.0 113.0 813.0 814.0 815.0 110.0 856.0 857.0 111.0 internal_48_858 859.0 860.0 863.0 944.0 947.0 948.0 internal_50_881 882.0 949.0 950.0 868.0 869.0 870.0 873.0 internal_49_874 871.0 119.0 127.0 123.0 147.0 149.0 144.0 141.0 126.0 122.0 146.0 128.0 134.0 132.0 143.0 145.0 131.0 153.0 133.0 161.0 184.0 154.0 172.0 174.0 159.0 157.0 183.0 169.0 170.0 162.0 internal_12_164 175.0 160.0 179.0 182.0 158.0 163.0 188.0 156.0 166.0 193.0 173.0 185.0 199.0 197.0 208.0 209.0 198.0 819.0 820.0 206.0 211.0 829.0 827.0 196.0 223.0 234.0 228.0 216.0 220.0 222.0 218.0 225.0 226.0 219.0 230.0 217.0 224.0 internal_54_952 951.0 264.0 831.0 253.0 236.0 246.0 244.0 245.0 243.0 247.0 258.0 252.0 241.0 259.0 242.0 257.0 248.0 249.0 256.0 237.0 262.0 239.0 270.0 283.0 305.0 267.0 269.0 291.0 279.0 271.0 303.0 302.0 293.0 280.0 289.0 290.0 273.0 internal_55_955 954.0 285.0 294.0 292.0 287.0 272.0 276.0 275.0 281.0 317.0 308.0 306.0 307.0 312.0 310.0 314.0 315.0 336.0 internal_22_322 320.0 330.0 333.0 326.0 335.0 341.0 internal_23_340 334.0 319.0 337.0 325.0 324.0 329.0 328.0 321.0 318.0 359.0 354.0 344.0 351.0 347.0 353.0 345.0 350.0 343.0 349.0 346.0 internal_24_356 348.0 366.0 372.0 365.0 367.0 362.0 370.0 363.0 364.0 377.0 375.0 368.0 382.0 internal_25_376 373.0 383.0 384.0 385.0 396.0 390.0 386.0 391.0 400.0 389.0 392.0 387.0 393.0 401.0 395.0 407.0 410.0 406.0 405.0 434.0 425.0 420.0 431.0 428.0 415.0 414.0 430.0 421.0 429.0 416.0 417.0 426.0 419.0 423.0 435.0 427.0 422.0 438.0 449.0 450.0 446.0 440.0 448.0 439.0 451.0 445.0 447.0 443.0 441.0 442.0 811.0 812.0 461.0 466.0 458.0 459.0 455.0 456.0 457.0 462.0 internal_29_454 464.0 474.0 472.0 477.0 473.0 479.0 480.0 471.0 478.0 486.0 496.0 493.0 500.0 487.0 491.0 484.0 490.0 494.0 499.0 507.0 492.0 495.0 498.0 506.0 485.0 505.0 internal_31_509 502.0 504.0 488.0 513.0 525.0 536.0 529.0 533.0 515.0 514.0 526.0 539.0 530.0 523.0 518.0 internal_32_540 532.0 531.0 535.0 519.0 524.0 512.0 517.0 516.0 521.0 545.0 554.0 541.0 546.0 550.0 556.0 547.0 552.0 549.0 543.0 548.0 568.0 566.0 562.0 560.0 565.0 561.0 607.0 585.0 574.0 615.0 591.0 600.0 579.0 602.0 597.0 593.0 582.0 808.0 586.0 573.0 588.0 580.0 581.0 594.0 587.0 611.0 609.0 584.0 576.0 603.0 599.0 598.0 578.0 604.0 630.0 621.0 629.0 647.0 618.0 619.0 641.0 622.0 643.0 636.0 627.0 638.0 635.0 649.0 639.0 623.0 644.0 646.0 640.0 624.0 648.0 625.0 633.0 642.0 628.0 620.0 634.0 internal_53_922 929.0 930.0 924.0 926.0 931.0 933.0 934.0 932.0 920.0 653.0 887.0 935.0 936.0 891.0 893.0 652.0 651.0 667.0 662.0 658.0 661.0 663.0 657.0 656.0 664.0 665.0 666.0 906.0 907.0 909.0 912.0 914.0 655.0 659.0 654.0 660.0 675.0 674.0 669.0 678.0 671.0 673.0 896.0 897.0 668.0 677.0 898.0 899.0 900.0 852.0 903.0 905.0 685.0 682.0 698.0 695.0 696.0 688.0 694.0 687.0 684.0 680.0 692.0 internal_39_679 701.0 693.0 699.0 683.0 689.0 686.0 690.0 721.0 730.0 722.0 713.0 internal_40_729 706.0 725.0 724.0 711.0 703.0 718.0 705.0 727.0 735.0 732.0 723.0 719.0 708.0 734.0 717.0 715.0 704.0 739.0 728.0 710.0 707.0 746.0 744.0 769.0 748.0 internal_42_766 745.0 767.0 760.0 759.0 768.0 762.0 743.0 753.0 751.0 749.0 747.0 756.0 770.0 758.0 754.0 755.0 internal_43_771 763.0 750.0 783.0 789.0 804.0 786.0 787.0 793.0 803.0 800.0 782.0 792.0 781.0 796.0 788.0 795.0 785.0 809.0 internal_1_810 3.0 4.0 50.0 5.0 6.0 53.0 54.0 1.0 2.0 76.0 internal_47_77 854.0 855.0 75.0 81.0 55.0 56.0 57.0 internal_7_7 58.0 59.0 internal_6_48 47.0 60.0 61.0 62.0 internal_3_9 10.0 63.0 64.0 65.0 13.0 66.0 67.0 68.0 internal_5_15 16.0 69.0 70.0 71.0 18.0"/>
</routes>
