<?xml version="1.0" encoding="UTF-8"?>

<!-- generated on 2025-10-30 01:44:39 by Eclipse SUMO netedit Version 1.23.1
-->

<routes xmlns:xsi="http://www.w3.org/2001/XMLSchema-instance" xsi:noNamespaceSchemaLocation="http://sumo.dlr.de/xsd/routes_file.xsd">
    <!-- Routes -->
    <route id="av_route" edges="868.0 869.0 870.0 873.0 merge_zone_49 871.0 119.0 127.0 123.0 147.0 149.0 144.0 141.0 124.0 122.0 146.0 128.0 134.0 132.0 143.0 145.0 131.0 139.0 133.0 161.0 184.0 154.0 172.0 174.0 159.0 157.0 183.0 169.0 170.0 162.0 merge_zone_12 175.0 160.0 179.0 182.0 158.0 163.0 188.0 156.0 166.0 193.0 173.0 185.0 199.0 197.0 208.0 209.0 198.0 819.0 820.0 206.0 211.0 828.0 827.0 196.0 223.0 227.0 228.0 216.0 220.0 222.0 218.0 225.0 226.0 219.0 230.0 217.0 224.0 merge_zone_54 951.0 264.0 831.0 253.0 236.0 246.0 244.0 245.0 243.0 247.0 258.0 252.0 241.0 259.0 242.0 257.0 248.0 249.0 256.0 237.0 262.0 239.0 270.0 283.0 274.0 267.0 269.0 291.0 279.0 271.0 277.0 302.0 293.0 280.0 289.0 290.0 273.0 merge_zone_55 954.0 285.0 294.0 292.0 287.0 272.0 276.0 275.0 281.0 317.0 308.0 306.0 307.0 312.0 310.0 314.0 315.0 336.0 merge_zone_22 320.0 330.0 333.0 326.0 335.0 341.0 merge_zone_23 334.0 319.0 337.0 325.0 324.0 329.0 328.0 321.0 318.0 359.0 354.0 344.0 351.0 347.0 353.0 345.0 350.0 343.0 349.0 346.0 merge_zone_24 348.0 366.0 372.0 365.0 367.0 362.0 370.0 363.0 364.0 377.0 375.0 368.0 382.0 merge_zone_25 373.0 383.0 384.0 385.0 396.0 390.0 386.0 391.0 400.0 389.0 392.0 387.0 393.0 401.0 395.0 407.0 410.0 406.0 405.0 434.0 425.0 420.0 431.0 428.0 415.0 414.0 430.0 421.0 429.0 416.0 417.0 426.0 419.0 423.0 435.0 427.0 422.0 438.0 449.0 450.0 446.0 440.0 448.0 439.0 451.0 445.0 447.0 443.0 441.0 442.0 811.0 812.0 461.0 466.0 458.0 459.0 455.0 456.0 457.0 462.0 merge_zone_29 464.0 474.0 472.0 477.0 473.0 479.0 480.0 471.0 478.0 486.0 496.0 493.0 500.0 487.0 491.0 484.0 490.0 494.0 499.0 507.0 492.0 495.0 498.0 506.0 485.0 505.0 merge_zone_31 502.0 504.0 488.0 513.0 525.0 536.0 529.0 533.0 515.0 514.0 526.0 539.0 530.0 523.0 518.0 merge_zone_32 532.0 531.0 535.0 519.0 524.0 512.0 517.0 516.0 521.0 545.0 554.0 541.0 546.0 550.0 556.0 547.0 552.0 549.0 544.0 548.0 568.0 566.0 562.0 560.0 565.0 561.0 607.0 585.0 574.0 615.0 591.0 600.0 579.0 602.0 597.0 593.0"/>
</routes>
