<?xml version='1.0' encoding='utf-8'?>
<nodes>
    <node id="node_976_end" x="738224.7595786521" y="3287335.306881536" type="priority" />
    <node id="node_54_end" x="790106.0614124094" y="3298185.4911601376" type="priority" />
    <node id="node_1_end" x="790274.1863272027" y="3298236.2499646926" type="priority" />
    <node id="node_85_end" x="564432.6669260372" y="3258370.6388760596" type="priority" />
    <node id="node_100_end" x="564439.661494566" y="3258373.2258008136" type="priority" />
    <node id="node_103_start" x="565373.2653940326" y="3258690.434765372" type="priority" />
    <node id="node_105_end" x="569768.8258453932" y="3260164.565514192" type="priority" />
    <node id="node_104_end" x="570127.0108736057" y="3260299.5156865628" type="priority" />
    <node id="node_848_end" x="569656.0050893673" y="3260122.108772799" type="priority" />
    <node id="node_108_end" x="572891.4295980254" y="3261363.4422895494" type="priority" />
    <node id="node_106_end" x="574106.7236639009" y="3261846.106557093" type="priority" />
    <node id="node_824_end" x="574444.5885640355" y="3261980.0784963258" type="priority" />
    <node id="node_107_end" x="575545.4348854903" y="3262416.7399032824" type="priority" />
    <node id="node_845_end" x="572596.4329920769" y="3261246.4217099566" type="priority" />
    <node id="node_823_end" x="574409.2363802005" y="3261936.301398743" type="priority" />
    <node id="node_109_end" x="574473.7962964539" y="3261954.9262791555" type="priority" />
    <node id="node_815_end" x="579346.0182137457" y="3263987.280101271" type="priority" />
    <node id="node_110_end" x="579419.7312752794" y="3264019.048914869" type="priority" />
    <node id="node_857_end" x="579517.1329248275" y="3264066.0265205465" type="priority" />
    <node id="node_114_end" x="577315.3364862212" y="3263119.3382531283" type="priority" />
    <node id="node_112_end" x="577367.6655594737" y="3263140.2147474824" type="priority" />
    <node id="node_117_end" x="578534.593754541" y="3263636.2063346016" type="priority" />
    <node id="node_113_end" x="578581.3433237785" y="3263656.624915975" type="priority" />
    <node id="node_825_end" x="577244.1965057235" y="3263090.9579148428" type="priority" />
    <node id="node_116_end" x="577577.0318405506" y="3263223.301019897" type="priority" />
    <node id="node_115_end" x="578280.7925356603" y="3263524.062730956" type="priority" />
    <node id="node_121_end" x="585894.9336472158" y="3266854.2691859077" type="priority" />
    <node id="node_122_start" x="589040.3041927577" y="3267898.898752416" type="priority" />
    <node id="node_127_end" x="586322.9805054658" y="3267021.9787419117" type="priority" />
    <node id="node_123_end" x="586385.6896908049" y="3267041.3555241493" type="priority" />
    <node id="node_141_end" x="588980.893899179" y="3267876.3518774174" type="priority" />
    <node id="node_125_end" x="589697.306527353" y="3268122.6666662362" type="priority" />
    <node id="node_126_end" x="589041.5486538173" y="3267895.544321266" type="priority" />
    <node id="node_146_end" x="589666.1215755707" y="3268138.01980063" type="priority" />
    <node id="node_128_end" x="589799.4767238854" y="3268189.1206456097" type="priority" />
    <node id="node_131_end" x="590251.8673491245" y="3268361.949701515" type="priority" />
    <node id="node_134_end" x="589870.3058616031" y="3268215.996667803" type="priority" />
    <node id="node_132_end" x="589906.0774929284" y="3268229.68261167" type="priority" />
    <node id="node_133_start" x="590323.1617365843" y="3268389.227899638" type="priority" />
    <node id="node_136_end" x="586386.7063991788" y="3267037.834299293" type="priority" />
    <node id="node_143_end" x="589994.3902523278" y="3268263.4796850327" type="priority" />
    <node id="node_149_end" x="588281.7201472879" y="3267627.690576699" type="priority" />
    <node id="node_148_end" x="588318.1921016934" y="3267618.5540868896" type="priority" />
    <node id="node_153_end" x="590324.6727534289" y="3268385.9295444153" type="priority" />
    <node id="node_184_end" x="592794.4287720997" y="3269407.7338812654" type="priority" />
    <node id="node_154_end" x="592936.4012929688" y="3269527.758579767" type="priority" />
    <node id="node_188_end" x="595538.6273891692" y="3271780.3016151455" type="priority" />
    <node id="node_156_end" x="595692.9853266311" y="3271877.9583942113" type="priority" />
    <node id="node_157_end" x="593514.5333859983" y="3270232.846003823" type="priority" />
    <node id="node_182_end" x="594970.3083578094" y="3271415.818288547" type="priority" />
    <node id="node_158_end" x="595116.9896023043" y="3271516.328439918" type="priority" />
    <node id="node_174_end" x="593126.2871736012" y="3269736.4949484398" type="priority" />
    <node id="node_175_end" x="594403.7369527641" y="3271020.4111539423" type="priority" />
    <node id="node_160_end" x="594508.386028266" y="3271095.6785988677" type="priority" />
    <node id="node_161_end" x="592650.3951820595" y="3269309.939576632" type="priority" />
    <node id="node_170_end" x="593925.8851081546" y="3270681.972443932" type="priority" />
    <node id="node_163_end" x="595296.3696143194" y="3271629.213331248" type="priority" />
    <node id="node_167_start" x="593924.1243602914" y="3270614.1807759283" type="priority" />
    <node id="node_171_end" x="593526.7952193513" y="3270222.905393877" type="priority" />
    <node id="node_168_end" x="593665.0317469005" y="3270338.2668555626" type="priority" />
    <node id="node_183_end" x="593648.0021755458" y="3270403.865915445" type="priority" />
    <node id="node_169_end" x="593793.2189230656" y="3270565.053680486" type="priority" />
    <node id="node_172_end" x="593060.584230427" y="3269655.597388818" type="priority" />
    <node id="node_193_end" x="596166.0478689346" y="3272190.75951761" type="priority" />
    <node id="node_173_end" x="596225.0483753366" y="3272227.5842972123" type="priority" />
    <node id="node_176_start" x="595729.4279263089" y="3271873.452097352" type="priority" />
    <node id="node_177_end" x="596226.9998062697" y="3272224.474071234" type="priority" />
    <node id="node_194_end" x="594979.6895599012" y="3271401.861003447" type="priority" />
    <node id="node_178_end" x="595070.3348415432" y="3271454.22730229" type="priority" />
    <node id="node_71_end" x="805311.8779859259" y="3298289.345971804" type="priority" />
    <node id="node_18_end" x="805403.5734924905" y="3298292.5135919666" type="priority" />
    <node id="node_190_end" x="592659.930786324" y="3269294.6234611548" type="priority" />
    <node id="node_195_end" x="592768.8681120636" y="3269352.8411351107" type="priority" />
    <node id="node_199_end" x="597289.3837084149" y="3272977.537563855" type="priority" />
    <node id="node_209_end" x="598321.6885958406" y="3273788.477910317" type="priority" />
    <node id="node_2_end" x="790555.7635921165" y="3298317.2459136024" type="priority" />
    <node id="node_200_end" x="596780.59947042" y="3272566.984071977" type="priority" />
    <node id="node_820_end" x="599086.2922925866" y="3274422.3828961216" type="priority" />
    <node id="node_208_end" x="597888.0192736122" y="3273443.017581792" type="priority" />
    <node id="node_44_end" x="785108.900867964" y="3296984.6639958257" type="priority" />
    <node id="node_211_end" x="600060.7617303957" y="3274825.4386843564" type="priority" />
    <node id="node_228_end" x="602354.9534898506" y="3274848.98157955" type="priority" />
    <node id="node_216_end" x="602544.2373136319" y="3274852.6004092824" type="priority" />
    <node id="node_230_end" x="604377.6025780065" y="3274872.5549817267" type="priority" />
    <node id="node_217_end" x="604907.0011993261" y="3274890.350991722" type="priority" />
    <node id="node_222_end" x="602806.2068523567" y="3274855.6412718715" type="priority" />
    <node id="node_218_end" x="602985.9874188562" y="3274857.567736596" type="priority" />
    <node id="node_226_end" x="603937.4926150285" y="3274867.661831012" type="priority" />
    <node id="node_220_end" x="602624.2422252839" y="3274853.6010842156" type="priority" />
    <node id="node_223_end" x="602083.2141363655" y="3274845.5669445037" type="priority" />
    <node id="node_225_end" x="603701.4947507707" y="3274865.0449835793" type="priority" />
    <node id="node_227_end" x="602180.1437878336" y="3274846.68023634" type="priority" />
    <node id="node_229_end" x="604377.3759021037" y="3274856.610928736" type="priority" />
    <node id="node_3_end" x="785464.6615941147" y="3296971.914728641" type="priority" />
    <node id="node_23_end" x="785614.0035543685" y="3296943.842163047" type="priority" />
    <node id="node_231_start" x="604771.4116595027" y="3274826.9065069193" type="priority" />
    <node id="node_234_end" x="602180.3035977255" y="3274843.4203166575" type="priority" />
    <node id="node_235_end" x="604455.1234774333" y="3274817.7591653587" type="priority" />
    <node id="node_253_end" x="608013.180494165" y="3275722.677291221" type="priority" />
    <node id="node_236_end" x="608313.6572614595" y="3275805.1481877696" type="priority" />
    <node id="node_256_end" x="613007.9291228629" y="3276665.131896914" type="priority" />
    <node id="node_237_end" x="613074.5164012553" y="3276666.375258779" type="priority" />
    <node id="node_262_end" x="613087.4398246115" y="3276666.61887966" type="priority" />
    <node id="node_45_end" x="785024.1994287746" y="3296994.280164191" type="priority" />
    <node id="node_24_end" x="785085.4165361245" y="3296987.271034112" type="priority" />
    <node id="node_251_end" x="608044.9824900804" y="3275714.9234575597" type="priority" />
    <node id="node_240_end" x="608255.308875502" y="3275758.5384519547" type="priority" />
    <node id="node_252_end" x="610390.1890327538" y="3276373.6974501153" type="priority" />
    <node id="node_241_end" x="610523.7215638012" y="3276410.502662991" type="priority" />
    <node id="node_259_end" x="611735.7592999459" y="3276640.5235417997" type="priority" />
    <node id="node_242_end" x="611871.2053949027" y="3276643.2377415523" type="priority" />
    <node id="node_245_end" x="609425.9280385897" y="3276109.410061194" type="priority" />
    <node id="node_246_end" x="608497.8055427438" y="3275855.5755305015" type="priority" />
    <node id="node_244_end" x="609263.624133683" y="3276065.0828493005" type="priority" />
    <node id="node_247_end" x="610051.5079752703" y="3276280.8135341234" type="priority" />
    <node id="node_248_end" x="612793.1132749367" y="3276661.0261335056" type="priority" />
    <node id="node_249_end" x="612941.4512465114" y="3276663.9268849506" type="priority" />
    <node id="node_46_end" x="784964.0486955151" y="3297001.2218756396" type="priority" />
    <node id="node_25_end" x="784999.0183198053" y="3296997.2406922933" type="priority" />
    <node id="node_250_end" x="610524.7121360275" y="3276407.020420991" type="priority" />
    <node id="node_258_end" x="610201.3494870308" y="3276321.8755298816" type="priority" />
    <node id="node_951_end" x="607302.9980860259" y="3275528.413669587" type="priority" />
    <node id="node_254_end" x="607387.2230239771" y="3275544.0186803974" type="priority" />
    <node id="node_26_end" x="793672.217951186" y="3298116.122273712" type="priority" />
    <node id="node_263_end" x="612793.1538280451" y="3276640.1757150656" type="priority" />
    <node id="node_264_end" x="607385.3127032585" y="3275550.9641485633" type="priority" />
    <node id="node_267_start" x="613837.386722082" y="3276681.2750232546" type="priority" />
    <node id="node_269_end" x="615394.0826283218" y="3276712.016189083" type="priority" />
    <node id="node_270_end" x="613630.8919460545" y="3276677.3440649156" type="priority" />
    <node id="node_279_end" x="616399.8429791472" y="3276949.315073544" type="priority" />
    <node id="node_271_end" x="616480.5457610614" y="3276977.263314477" type="priority" />
    <node id="node_287_end" x="619014.9952768527" y="3277855.8176880176" type="priority" />
    <node id="node_272_end" x="619053.548196054" y="3277869.1800024174" type="priority" />
    <node id="node_290_end" x="617829.4972227225" y="3277445.194144471" type="priority" />
    <node id="node_283_end" x="613726.6119777628" y="3276679.187692876" type="priority" />
    <node id="node_275_end" x="619886.5954982835" y="3278157.7432011487" type="priority" />
    <node id="node_277_end" x="616579.7218890602" y="3277011.737434168" type="priority" />
    <node id="node_285_end" x="618493.5089023585" y="3277675.2380960295" type="priority" />
    <node id="node_278_end" x="618575.4726511035" y="3277695.9206373193" type="priority" />
    <node id="node_28_start" x="794039.1714721251" y="3298127.401777408" type="priority" />
    <node id="node_293_end" x="616793.0359963409" y="3277085.830618704" type="priority" />
    <node id="node_281_end" x="620301.5728767002" y="3278301.233450429" type="priority" />
    <node id="node_954_end" x="618420.5368027778" y="3277650.0627301508" type="priority" />
    <node id="node_286_end" x="615585.9426352748" y="3276681.4468183173" type="priority" />
    <node id="node_289_end" x="617132.2266760763" y="3277203.434906172" type="priority" />
    <node id="node_29_start" x="795015.5396837214" y="3298159.470150417" type="priority" />
    <node id="node_292_start" x="618573.1422167092" y="3277702.824059195" type="priority" />
    <node id="node_302_end" x="616639.7572521553" y="3277032.563052635" type="priority" />
    <node id="node_30_end" x="797427.8127811876" y="3298038.184198089" type="priority" />
    <node id="node_301_end" x="617221.8650280957" y="3277196.241246511" type="priority" />
    <node id="node_303_end" x="616580.9808957888" y="3277008.256059101" type="priority" />
    <node id="node_304_start" x="617709.1813468158" y="3277348.2898447467" type="priority" />
    <node id="node_305_end" x="613837.4889060443" y="3276677.521224218" type="priority" />
    <node id="node_308_end" x="621750.7073757413" y="3278753.0449316157" type="priority" />
    <node id="node_306_end" x="621864.8104030854" y="3278789.871896949" type="priority" />
    <node id="node_307_end" x="623553.9262478114" y="3279334.2954198993" type="priority" />
    <node id="node_308_start" x="620384.2022487884" y="3278327.331369605" type="priority" />
    <node id="node_312_end" x="623672.8208400949" y="3279372.603769507" type="priority" />
    <node id="node_313_end" x="625845.2363902882" y="3280049.3825240145" type="priority" />
    <node id="node_314_end" x="625774.506875253" y="3280049.5930883554" type="priority" />
    <node id="node_315_end" x="626528.714867164" y="3280292.613783982" type="priority" />
    <node id="node_317_end" x="620385.1905910734" y="3278323.8147680424" type="priority" />
    <node id="node_321_end" x="632529.9586878518" y="3280675.3654688266" type="priority" />
    <node id="node_318_end" x="635055.7675804379" y="3280860.3743658653" type="priority" />
    <node id="node_334_end" x="631281.6229093957" y="3280764.4141067453" type="priority" />
    <node id="node_319_end" x="631349.0937017591" y="3280759.5899269595" type="priority" />
    <node id="node_32_end" x="799294.1097777395" y="3298088.6897101123" type="priority" />
    <node id="node_320_end" x="627467.7162846426" y="3280595.1991672334" type="priority" />
    <node id="node_328_end" x="632516.8178743179" y="3280676.25723754" type="priority" />
    <node id="node_323_start" x="629919.0773098228" y="3280831.976206031" type="priority" />
    <node id="node_325_end" x="631690.2592546637" y="3280735.3446557345" type="priority" />
    <node id="node_324_end" x="631906.771175842" y="3280719.7860425543" type="priority" />
    <node id="node_337_end" x="631676.5711372631" y="3280736.3333141776" type="priority" />
    <node id="node_326_end" x="629168.2657767194" y="3280915.510980471" type="priority" />
    <node id="node_329_end" x="631973.3148790626" y="3280715.0943346336" type="priority" />
    <node id="node_330_end" x="627588.9890452833" y="3280634.4422683865" type="priority" />
    <node id="node_331_end" x="629303.4576198813" y="3280872.559396472" type="priority" />
    <node id="node_335_end" x="629981.2754251929" y="3280857.40199972" type="priority" />
    <node id="node_339_start" x="626395.6749050379" y="3280200.2212621835" type="priority" />
    <node id="node_350_end" x="636286.6919249224" y="3281105.3667932805" type="priority" />
    <node id="node_343_end" x="636300.4268031374" y="3281108.0483901347" type="priority" />
    <node id="node_354_end" x="635463.1183011008" y="3280941.581161061" type="priority" />
    <node id="node_344_end" x="635475.9454280221" y="3280944.1351037794" type="priority" />
    <node id="node_353_end" x="636113.9603541367" y="3281071.0374915036" type="priority" />
    <node id="node_345_end" x="636179.06910795" y="3281084.0120828487" type="priority" />
    <node id="node_349_end" x="636655.191614223" y="3281178.9149362245" type="priority" />
    <node id="node_347_end" x="635792.8846245124" y="3281007.0649425155" type="priority" />
    <node id="node_348_end" x="640686.6475611099" y="3281191.078134801" type="priority" />
    <node id="node_35_start" x="797892.3997625342" y="3297926.254396033" type="priority" />
    <node id="node_352_start" x="636597.9880765445" y="3281138.3355201054" type="priority" />
    <node id="node_359_end" x="635121.2269217235" y="3280873.3278308976" type="priority" />
    <node id="node_357_end" x="635796.3973465705" y="3280987.7546467115" type="priority" />
    <node id="node_36_start" x="799823.054320386" y="3298078.492388981" type="priority" />
    <node id="node_361_end" x="635956.1433366142" y="3280993.4847727343" type="priority" />
    <node id="node_367_end" x="642090.8180324791" y="3281111.3182470775" type="priority" />
    <node id="node_362_end" x="642155.5738307302" y="3281107.6929419297" type="priority" />
    <node id="node_363_end" x="644229.1888247039" y="3280990.0119687733" type="priority" />
    <node id="node_364_end" x="644668.0468534597" y="3280965.408823398" type="priority" />
    <node id="node_372_end" x="640793.9484646079" y="3281185.02118906" type="priority" />
    <node id="node_365_end" x="642037.8049709571" y="3281114.3432714613" type="priority" />
    <node id="node_366_end" x="640739.0330591555" y="3281188.1522925156" type="priority" />
    <node id="node_375_end" x="644779.4390042778" y="3280959.175729718" type="priority" />
    <node id="node_368_end" x="644982.3559503545" y="3280947.764389891" type="priority" />
    <node id="node_37_end" x="801132.8246718735" y="3298149.3107547513" type="priority" />
    <node id="node_371_start" x="644776.0551829145" y="3280907.0494588674" type="priority" />
    <node id="node_371_end" x="644982.1195460916" y="3280933.199777809" type="priority" />
    <node id="node_373_end" x="646648.3491405183" y="3280914.653310178" type="priority" />
    <node id="node_377_end" x="644721.8654531634" y="3280962.367617085" type="priority" />
    <node id="node_380_end" x="644228.0409329305" y="3280975.077341285" type="priority" />
    <node id="node_379_end" x="644414.2942173008" y="3280947.3979715877" type="priority" />
    <node id="node_383_end" x="646701.2298691757" y="3280923.983565133" type="priority" />
    <node id="node_384_end" x="646751.3994551697" y="3280932.823639818" type="priority" />
    <node id="node_390_end" x="653298.6369167059" y="3281955.558938523" type="priority" />
    <node id="node_386_end" x="653350.5042765443" y="3281962.596783697" type="priority" />
    <node id="node_392_end" x="656517.018218216" y="3282480.025054205" type="priority" />
    <node id="node_387_end" x="656663.7031892193" y="3282496.0273255105" type="priority" />
    <node id="node_388_end" x="652983.9056213296" y="3281897.9217854417" type="priority" />
    <node id="node_400_end" x="653899.8496067611" y="3282036.9172684783" type="priority" />
    <node id="node_396_end" x="652982.207223425" y="3281912.549637321" type="priority" />
    <node id="node_391_end" x="653402.4843679438" y="3281969.626244098" type="priority" />
    <node id="node_393_end" x="656706.3264769682" y="3282500.71847151" type="priority" />
    <node id="node_401_end" x="656863.7248202114" y="3282517.9391734228" type="priority" />
    <node id="node_398_end" x="653082.6679470306" y="3281900.2121070297" type="priority" />
    <node id="node_4_end" x="785615.2766968003" y="3296954.9055812308" type="priority" />
    <node id="node_40_start" x="801774.297095726" y="3298102.3482817444" type="priority" />
    <node id="node_402_start" x="653605.9013599997" y="3281913.3906948045" type="priority" />
    <node id="node_405_end" x="666664.1651393243" y="3284371.4240209726" type="priority" />
    <node id="node_410_end" x="664553.6382676096" y="3283361.254299212" type="priority" />
    <node id="node_407_end" x="663776.2486912935" y="3283275.760027645" type="priority" />
    <node id="node_409_start" x="664460.7929465543" y="3283316.4386694096" type="priority" />
    <node id="node_41_end" x="803880.3486660566" y="3298230.9796621487" type="priority" />
    <node id="node_412_end" x="663931.7544948816" y="3283256.3222753666" type="priority" />
    <node id="node_415_end" x="668702.570159239" y="3285426.9519823627" type="priority" />
    <node id="node_414_end" x="668947.3127222405" y="3285528.9058323777" type="priority" />
    <node id="node_429_end" x="669377.9297268159" y="3285708.344736305" type="priority" />
    <node id="node_417_end" x="670626.5414212702" y="3286001.2384741562" type="priority" />
    <node id="node_418_end" x="668890.6810694698" y="3285459.5640357397" type="priority" />
    <node id="node_426_end" x="670688.6584865808" y="3286001.660165992" type="priority" />
    <node id="node_419_end" x="670960.5034572246" y="3286002.9847509526" type="priority" />
    <node id="node_425_end" x="667475.5551539417" y="3284835.209726539" type="priority" />
    <node id="node_420_end" x="667521.2311184179" y="3284861.1960546034" type="priority" />
    <node id="node_430_end" x="668997.1474392484" y="3285549.83747312" type="priority" />
    <node id="node_421_end" x="669127.6151515583" y="3285604.277597721" type="priority" />
    <node id="node_427_end" x="671185.4739162687" y="3286003.6584570073" type="priority" />
    <node id="node_422_end" x="673724.7305962944" y="3286015.556277121" type="priority" />
    <node id="node_423_end" x="671054.1322414641" y="3286003.2716161874" type="priority" />
    <node id="node_434_end" x="666744.2898952725" y="3284417.3162941607" type="priority" />
    <node id="node_435_end" x="671112.7961208583" y="3286003.4457494877" type="priority" />
    <node id="node_431_end" x="667635.5871362453" y="3284926.5883886474" type="priority" />
    <node id="node_436_start" x="669285.2487018623" y="3285630.0326873353" type="priority" />
    <node id="node_438_end" x="673783.1445840085" y="3286015.8454895685" type="priority" />
    <node id="node_448_end" x="675499.8330439036" y="3286024.326729101" type="priority" />
    <node id="node_439_end" x="675550.8572001553" y="3286024.5642389427" type="priority" />
    <node id="node_446_end" x="675211.8187360717" y="3286022.8279139744" type="priority" />
    <node id="node_440_end" x="675263.8461499414" y="3286023.1000469923" type="priority" />
    <node id="node_443_end" x="676896.2186817604" y="3286030.9348368947" type="priority" />
    <node id="node_441_end" x="677036.3000959904" y="3286031.6255697315" type="priority" />
    <node id="node_442_end" x="677212.7093819595" y="3286032.4978294987" type="priority" />
    <node id="node_447_end" x="676022.75190606" y="3286026.709125079" type="priority" />
    <node id="node_451_end" x="675628.0193005402" y="3286024.8815447674" type="priority" />
    <node id="node_450_end" x="675160.1346543324" y="3286022.5599199766" type="priority" />
    <node id="node_449_end" x="673870.3714009458" y="3286016.20982154" type="priority" />
    <node id="node_453_start" x="683786.4048855071" y="3286649.627878394" type="priority" />
    <node id="node_459_end" x="683562.3477045696" y="3286682.0593815437" type="priority" />
    <node id="node_455_end" x="683634.0915947959" y="3286684.855488787" type="priority" />
    <node id="node_456_end" x="683876.2082761829" y="3286695.1766518857" type="priority" />
    <node id="node_457_end" x="683976.4577968701" y="3286699.426949312" type="priority" />
    <node id="node_466_end" x="682713.2859450402" y="3286647.1843035333" type="priority" />
    <node id="node_458_end" x="683471.5494902944" y="3286678.4197530714" type="priority" />
    <node id="node_46_start" x="784934.6435231119" y="3297004.4983432186" type="priority" />
    <node id="node_460_end" x="682892.6069118743" y="3286614.287058083" type="priority" />
    <node id="node_812_end" x="678442.0135692253" y="3286250.6595613086" type="priority" />
    <node id="node_468_end" x="692955.2740864244" y="3286250.557543815" type="priority" />
    <node id="node_480_end" x="693517.4054198576" y="3286263.653944483" type="priority" />
    <node id="node_474_end" x="692955.1685265957" y="3286264.1198368603" type="priority" />
    <node id="node_472_end" x="692992.043921432" y="3286264.0977779296" type="priority" />
    <node id="node_477_end" x="693149.7909804914" y="3286264.0821600445" type="priority" />
    <node id="node_473_end" x="693223.5098823768" y="3286264.0105839856" type="priority" />
    <node id="node_475_start" x="693303.2381758885" y="3286224.0562148117" type="priority" />
    <node id="node_475_end" x="693517.6328207958" y="3286251.473373954" type="priority" />
    <node id="node_476_end" x="693060.4483425386" y="3286235.027658669" type="priority" />
    <node id="node_478_end" x="698960.3494692098" y="3286130.2547955057" type="priority" />
    <node id="node_479_end" x="693273.1018677313" y="3286263.902303922" type="priority" />
    <node id="node_491_end" x="700063.867558241" y="3286223.1293536923" type="priority" />
    <node id="node_484_end" x="700764.141908813" y="3286282.296660698" type="priority" />
    <node id="node_506_end" x="703021.6598201989" y="3286664.4715793203" type="priority" />
    <node id="node_485_end" x="703345.5784736415" y="3286728.0096891164" type="priority" />
    <node id="node_486_end" x="699050.1273307713" y="3286137.869092031" type="priority" />
    <node id="node_500_end" x="699529.0752394603" y="3286178.1216180106" type="priority" />
    <node id="node_487_end" x="699995.5490957942" y="3286217.4345375425" type="priority" />
    <node id="node_504_end" x="704848.3587117374" y="3286969.5125802" type="priority" />
    <node id="node_488_end" x="705576.425551247" y="3286997.9637353853" type="priority" />
    <node id="node_489_start" x="703169.8517559274" y="3286656.499566936" type="priority" />
    <node id="node_489_end" x="703348.2428281171" y="3286716.625735335" type="priority" />
    <node id="node_490_end" x="700854.3108422928" y="3286289.999496387" type="priority" />
    <node id="node_507_end" x="702581.0516378895" y="3286577.9467311352" type="priority" />
    <node id="node_492_end" x="702605.4239650174" y="3286582.6999298413" type="priority" />
    <node id="node_496_end" x="699126.3280042952" y="3286144.2385547217" type="priority" />
    <node id="node_493_end" x="699338.7635554894" y="3286162.1338072824" type="priority" />
    <node id="node_494_end" x="700906.7670013593" y="3286294.4015353746" type="priority" />
    <node id="node_495_end" x="702883.0137522679" y="3286637.2486224286" type="priority" />
    <node id="node_497_end" x="702584.2056269858" y="3286564.489698506" type="priority" />
    <node id="node_498_end" x="702953.184869602" y="3286651.144542949" type="priority" />
    <node id="node_5_end" x="786527.2429792397" y="3297089.236309628" type="priority" />
    <node id="node_501_end" x="702740.8870562434" y="3286581.1807063734" type="priority" />
    <node id="node_502_end" x="704766.0040686546" y="3286966.3372062775" type="priority" />
    <node id="node_524_end" x="709467.0380560647" y="3286252.1437738836" type="priority" />
    <node id="node_512_end" x="709956.6524281701" y="3286167.166730006" type="priority" />
    <node id="node_513_end" x="705666.2718890527" y="3287001.4489296055" type="priority" />
    <node id="node_514_end" x="707824.7147159537" y="3286958.572553761" type="priority" />
    <node id="node_533_end" x="705980.0421001035" y="3287013.6794483867" type="priority" />
    <node id="node_517_end" x="710504.5417434525" y="3286222.431509939" type="priority" />
    <node id="node_516_end" x="710701.6553211525" y="3286242.394928499" type="priority" />
    <node id="node_523_end" x="708316.7373128128" y="3286746.9025560655" type="priority" />
    <node id="node_535_end" x="709239.490313502" y="3286349.79242315" type="priority" />
    <node id="node_519_end" x="709396.9876905128" y="3286282.203600485" type="priority" />
    <node id="node_521_end" x="713101.9623844335" y="3286484.477993609" type="priority" />
    <node id="node_528_end" x="707818.0060726416" y="3286944.735576679" type="priority" />
    <node id="node_522_end" x="707948.2255336555" y="3286848.1483577853" type="priority" />
    <node id="node_530_end" x="708126.0607336176" y="3286828.979873194" type="priority" />
    <node id="node_525_end" x="705695.9365271197" y="3287002.59898457" type="priority" />
    <node id="node_526_end" x="707978.0212954371" y="3286892.8189655924" type="priority" />
    <node id="node_527_start" x="708186.8513069849" y="3286770.6107407534" type="priority" />
    <node id="node_527_end" x="708312.1765577527" y="3286735.777415985" type="priority" />
    <node id="node_536_end" x="705847.6011441747" y="3287008.4679810056" type="priority" />
    <node id="node_529_end" x="705938.2758881482" y="3287012.0435156506" type="priority" />
    <node id="node_53_end" x="790026.3717867553" y="3298160.962737924" type="priority" />