<?xml version="1.0" encoding="UTF-8"?>

<!-- generated on 2025-10-19 17:35:15 by Eclipse SUMO netconvert Version 1.23.1
<netconvertConfiguration xmlns:xsi="http://www.w3.org/2001/XMLSchema-instance" xsi:noNamespaceSchemaLocation="http://sumo.dlr.de/xsd/netconvertConfiguration.xsd">

    <input>
        <node-files value="/home/sdai/harry/TeraSim/jupiter/eb/jupiter_eb.nod.xml"/>
        <edge-files value="/home/sdai/harry/TeraSim/jupiter/eb/jupiter_eb.edg.xml"/>
        <connection-files value="/home/sdai/harry/TeraSim/jupiter/eb/jupiter_eb.con.xml"/>
    </input>

    <output>
        <output-file value="/home/sdai/harry/TeraSim/jupiter/eb/jupiter_eb.net.xml"/>
        <output.street-names value="true"/>
        <output.original-names value="true"/>
    </output>

    <processing>
        <geometry.remove value="false"/>
        <geometry.min-dist value="0.5"/>
        <edges.join value="false"/>
    </processing>

    <junctions>
        <no-internal-links value="false"/>
        <no-turnarounds value="true"/>
        <junctions.join value="true"/>
        <junctions.join-dist value="10"/>
        <junctions.corner-detail value="5"/>
        <junctions.internal-link-detail value="5"/>
        <junctions.limit-turn-speed value="5.5"/>
        <rectangular-lane-cut value="true"/>
        <check-lane-foes.all value="true"/>
    </junctions>

</netconvertConfiguration>
-->

<net version="1.20" junctionCornerDetail="5" junctionLinkDetail="5" rectangularLaneCut="true" limitTurnSpeed="5.50" checkLaneFoesAll="1" xmlns:xsi="http://www.w3.org/2001/XMLSchema-instance" xsi:noNamespaceSchemaLocation="http://sumo.dlr.de/xsd/net_file.xsd">

    <location netOffset="-563887.05,-3258169.84" convBoundary="0.00,0.00,241516.53,40231.01" origBoundary="563887.05,3258169.84,805403.57,3298400.85" projParameter="!"/>

    <edge id=":j_merge_end_1_0" function="internal">
        <lane id=":j_merge_end_1_0_0" index="0" disallow="all" speed="13.89" length="3.06" width="3.66" shape="221547.98,38788.87 221550.00,38803.37"/>
        <lane id=":j_merge_end_1_0_1" index="1" speed="13.89" length="3.06" width="3.66" shape="221548.47,38792.50 221548.75,38792.46"/>
        <lane id=":j_merge_end_1_0_2" index="2" speed="13.89" length="3.06" width="3.66" shape="221548.97,38796.12 221549.17,38796.10"/>
        <lane id=":j_merge_end_1_0_3" index="3" speed="13.89" length="3.06" width="3.66" shape="221549.46,38799.75 221549.58,38799.74"/>
        <lane id=":j_merge_end_1_0_4" index="4" disallow="all" speed="13.89" length="3.06" width="3.66" shape="221549.96,38803.38 221550.00,38803.37"/>
    </edge>
    <edge id=":j_merge_end_12_0" function="internal">
        <lane id=":j_merge_end_12_0_0" index="0" speed="13.89" length="36.39" width="3.66" shape="30259.97,12659.52 30267.40,12666.10 30272.67,12672.85 30277.95,12679.59 30285.37,12686.17"/>
        <lane id=":j_merge_end_12_0_1" index="1" speed="13.89" length="36.39" width="3.66" shape="30257.87,12662.51 30287.47,12683.17"/>
        <lane id=":j_merge_end_12_0_2" index="2" speed="13.89" length="36.39" width="3.66" shape="30255.77,12665.51 30285.37,12686.17"/>
    </edge>
    <edge id=":j_merge_end_22_0" function="internal">
        <lane id=":j_merge_end_22_0_0" index="0" speed="13.89" length="2.64" width="3.66" shape="63003.55,22229.74 63001.59,22236.79"/>
        <lane id=":j_merge_end_22_0_1" index="1" speed="13.89" length="2.64" width="3.66" shape="63002.43,22233.22 63002.71,22233.31"/>
        <lane id=":j_merge_end_22_0_2" index="2" speed="13.89" length="2.64" width="3.66" shape="63001.30,22236.70 63001.59,22236.79"/>
    </edge>
    <edge id=":j_merge_end_23_0" function="internal">
        <lane id=":j_merge_end_23_0_0" index="0" speed="13.89" length="49.20" width="3.66" shape="66421.12,22655.09 66433.04,22655.42 66445.81,22657.05 66458.58,22658.66 66470.50,22658.93"/>
        <lane id=":j_merge_end_23_0_1" index="1" speed="13.89" length="49.20" width="3.66" shape="66421.36,22658.74 66470.23,22655.28"/>
        <lane id=":j_merge_end_23_0_2" index="2" speed="13.89" length="49.20" width="3.66" shape="66421.61,22662.39 66470.50,22658.93"/>
    </edge>
    <edge id=":j_merge_end_24_0" function="internal">
        <lane id=":j_merge_end_24_0_0" index="0" speed="13.89" length="43.88" width="3.66" shape="72984.63,23042.90 72995.24,23046.18 73005.32,23050.77 73015.40,23055.37 73026.00,23058.66"/>
        <lane id=":j_merge_end_24_0_1" index="1" speed="13.89" length="43.88" width="3.66" shape="72983.92,23046.49 73026.72,23055.07"/>
        <lane id=":j_merge_end_24_0_2" index="2" speed="13.89" length="43.88" width="3.66" shape="72983.21,23050.08 73026.00,23058.66"/>
    </edge>
    <edge id=":j_merge_end_25_0" function="internal">
        <lane id=":j_merge_end_25_0_0" index="0" speed="13.89" length="2.64" width="3.66" shape="81426.34,22750.06 81427.05,22757.35"/>
        <lane id=":j_merge_end_25_0_1" index="1" speed="13.89" length="2.64" width="3.66" shape="81426.55,22753.72 81426.85,22753.70"/>
        <lane id=":j_merge_end_25_0_2" index="2" speed="13.89" length="2.64" width="3.66" shape="81426.75,22757.37 81427.05,22757.35"/>
    </edge>
    <edge id=":j_merge_end_29_0" function="internal">
        <lane id=":j_merge_end_29_0_0" index="0" speed="13.89" length="34.91" width="3.66" shape="120343.81,28530.50 120353.38,28532.04 120360.95,28534.90 120368.51,28537.75 120378.08,28539.30"/>
        <lane id=":j_merge_end_29_0_1" index="1" speed="13.89" length="34.91" width="3.66" shape="120343.67,28534.15 120378.23,28535.64"/>
        <lane id=":j_merge_end_29_0_2" index="2" speed="13.89" length="34.91" width="3.66" shape="120343.52,28537.81 120378.08,28539.30"/>
    </edge>
    <edge id=":j_merge_end_3_0" function="internal">
        <lane id=":j_merge_end_3_0_0" index="0" disallow="all" speed="13.89" length="3.04" width="3.66" shape="234807.54,39916.98 234807.16,39931.61"/>
        <lane id=":j_merge_end_3_0_1" index="1" speed="13.89" length="3.04" width="3.66" shape="234807.44,39920.64 234807.68,39920.64"/>
        <lane id=":j_merge_end_3_0_2" index="2" speed="13.89" length="3.04" width="3.66" shape="234807.33,39924.29 234807.50,39924.30"/>
        <lane id=":j_merge_end_3_0_3" index="3" speed="13.89" length="3.04" width="3.66" shape="234807.23,39927.95 234807.33,39927.96"/>
        <lane id=":j_merge_end_3_0_4" index="4" disallow="all" speed="13.89" length="3.04" width="3.66" shape="234807.12,39931.61 234807.16,39931.61"/>
    </edge>
    <edge id=":j_merge_end_31_0" function="internal">
        <lane id=":j_merge_end_31_0_0" index="0" speed="13.89" length="43.63" width="3.66" shape="139668.47,28590.27 139679.04,28593.52 139689.05,28598.04 139699.07,28602.55 139709.64,28605.77"/>
        <lane id=":j_merge_end_31_0_1" index="1" speed="13.89" length="43.63" width="3.66" shape="139667.76,28593.86 139710.35,28602.18"/>
        <lane id=":j_merge_end_31_0_2" index="2" speed="13.89" length="43.63" width="3.66" shape="139667.05,28597.45 139709.64,28605.77"/>
    </edge>
    <edge id=":j_merge_end_32_0" function="internal">
        <lane id=":j_merge_end_32_0_0" index="0" speed="13.89" length="41.95" width="3.66" shape="144602.42,28492.74 144612.73,28489.55 144623.01,28487.84 144633.30,28486.14 144643.61,28482.96"/>
        <lane id=":j_merge_end_32_0_1" index="1" speed="13.89" length="41.95" width="3.66" shape="144603.87,28496.11 144642.17,28479.59"/>
        <lane id=":j_merge_end_32_0_2" index="2" speed="13.89" length="41.95" width="3.66" shape="144605.31,28499.47 144643.61,28482.96"/>
    </edge>
    <edge id=":j_merge_end_39_0" function="internal">
        <lane id=":j_merge_end_39_0_0" index="0" disallow="all" speed="13.89" length="37.84" width="3.66" shape="202163.35,36619.02 202174.26,36623.67 202180.03,36631.00 202185.79,36638.31 202196.71,36642.95"/>
        <lane id=":j_merge_end_39_0_1" index="1" speed="13.89" length="37.84" width="3.66" shape="202162.19,36626.25 202198.43,36632.11"/>
        <lane id=":j_merge_end_39_0_2" index="2" speed="13.89" length="37.84" width="3.66" shape="202161.62,36629.86 202197.85,36635.72"/>
        <lane id=":j_merge_end_39_0_3" index="3" speed="13.89" length="37.84" width="3.66" shape="202161.04,36633.48 202197.28,36639.34"/>
        <lane id=":j_merge_end_39_0_4" index="4" disallow="all" speed="13.89" length="37.84" width="3.66" shape="202160.46,36637.09 202196.71,36642.95"/>
    </edge>
    <edge id=":j_merge_end_40_0" function="internal">
        <lane id=":j_merge_end_40_0_0" index="0" disallow="all" speed="13.89" length="47.84" width="3.66" shape="205876.11,37314.82 205889.59,37320.73 205897.12,37328.82 205904.61,37336.89 205918.00,37342.76"/>
        <lane id=":j_merge_end_40_0_1" index="1" speed="13.89" length="47.84" width="3.66" shape="205874.52,37321.97 205920.37,37332.04"/>
        <lane id=":j_merge_end_40_0_2" index="2" speed="13.89" length="47.84" width="3.66" shape="205873.73,37325.54 205919.58,37335.62"/>
        <lane id=":j_merge_end_40_0_3" index="3" speed="13.89" length="47.84" width="3.66" shape="205872.94,37329.11 205918.79,37339.19"/>
        <lane id=":j_merge_end_40_0_4" index="4" disallow="all" speed="13.89" length="47.84" width="3.66" shape="205872.14,37332.68 205918.00,37342.76"/>
    </edge>
    <edge id=":j_merge_end_42_0" function="internal">
        <lane id=":j_merge_end_42_0_0" index="0" disallow="all" speed="13.89" length="43.96" width="3.66" shape="211331.84,37864.04 211343.28,37871.38 211348.75,37880.17 211354.21,37888.97 211365.64,37896.34"/>
        <lane id=":j_merge_end_42_0_1" index="1" speed="13.89" length="43.96" width="3.66" shape="211329.28,37870.90 211369.50,37886.06"/>
        <lane id=":j_merge_end_42_0_2" index="2" speed="13.89" length="43.96" width="3.66" shape="211328.00,37874.33 211368.22,37889.49"/>
        <lane id=":j_merge_end_42_0_3" index="3" speed="13.89" length="43.96" width="3.66" shape="211326.72,37877.76 211366.93,37892.91"/>
        <lane id=":j_merge_end_42_0_4" index="4" disallow="all" speed="13.89" length="43.96" width="3.66" shape="211325.44,37881.19 211365.64,37896.34"/>
    </edge>
    <edge id=":j_merge_end_43_0" function="internal">
        <lane id=":j_merge_end_43_0_0" index="0" disallow="all" speed="13.89" length="36.09" width="3.66" shape="215354.93,39285.61 215365.65,39289.36 215371.60,39296.13 215377.54,39302.88 215388.27,39306.57"/>
        <lane id=":j_merge_end_43_0_1" index="1" speed="13.89" length="36.09" width="3.66" shape="215354.32,39292.90 215389.11,39295.62"/>
        <lane id=":j_merge_end_43_0_2" index="2" speed="13.89" length="36.09" width="3.66" shape="215354.02,39296.55 215388.83,39299.27"/>
        <lane id=":j_merge_end_43_0_3" index="3" speed="13.89" length="36.09" width="3.66" shape="215353.72,39300.20 215388.55,39302.92"/>
        <lane id=":j_merge_end_43_0_4" index="4" disallow="all" speed="13.89" length="36.09" width="3.66" shape="215353.41,39303.85 215388.27,39306.57"/>
    </edge>
    <edge id=":j_merge_end_47_0" function="internal">
        <lane id=":j_merge_end_47_0_0" index="0" disallow="all" speed="13.89" length="48.99" width="3.66" shape="226928.23,40182.04 226942.32,40186.58 226951.10,40192.96 226959.90,40199.21 226974.05,40203.33"/>
        <lane id=":j_merge_end_47_0_1" index="1" speed="13.89" length="48.99" width="3.66" shape="226927.65,40185.66 226975.45,40192.44"/>
        <lane id=":j_merge_end_47_0_2" index="2" speed="13.89" length="48.99" width="3.66" shape="226927.08,40189.27 226974.98,40196.07"/>
        <lane id=":j_merge_end_47_0_3" index="3" speed="13.89" length="48.99" width="3.66" shape="226926.50,40192.89 226974.51,40199.70"/>
        <lane id=":j_merge_end_47_0_4" index="4" disallow="all" speed="13.89" length="48.99" width="3.66" shape="226925.93,40196.50 226974.05,40203.33"/>
    </edge>
    <edge id=":j_merge_end_48_0" function="internal">
        <lane id=":j_merge_end_48_0_0" index="0" disallow="all" speed="13.89" length="42.41" width="3.66" shape="16290.03,6177.23 16300.27,6183.61 16306.44,6190.44 16312.90,6197.40 16324.00,6204.17"/>
        <lane id=":j_merge_end_48_0_1" index="1" speed="13.89" length="42.41" width="3.66" shape="16288.55,6180.58 16326.95,6197.47"/>
        <lane id=":j_merge_end_48_0_2" index="2" speed="13.89" length="42.41" width="3.66" shape="16287.08,6183.93 16325.48,6200.82"/>
        <lane id=":j_merge_end_48_0_3" index="3" disallow="all" speed="13.89" length="42.41" width="3.66" shape="16285.60,6187.28 16324.00,6204.17"/>
    </edge>
    <edge id=":j_merge_end_49_0" function="internal">
        <lane id=":j_merge_end_49_0_0" index="0" speed="13.89" length="42.44" width="3.66" shape="21478.35,8458.60 21488.43,8464.27 21497.94,8471.13 21506.59,8477.60 21514.11,8482.11"/>
        <lane id=":j_merge_end_49_0_1" index="1" speed="13.89" length="42.44" width="3.66" shape="21476.86,8461.94 21515.58,8478.76"/>
        <lane id=":j_merge_end_49_0_2" index="2" speed="13.89" length="42.44" width="3.66" shape="21475.38,8465.29 21514.11,8482.11"/>
    </edge>
    <edge id=":j_merge_end_5_0" function="internal">
        <lane id=":j_merge_end_5_0_0" index="0" disallow="all" speed="13.89" length="3.17" width="3.66" shape="238448.95,40027.51 238448.81,40042.16"/>
        <lane id=":j_merge_end_5_0_1" index="1" speed="13.89" length="3.17" width="3.66" shape="238448.84,40031.17 238449.14,40031.18"/>
        <lane id=":j_merge_end_5_0_2" index="2" speed="13.89" length="3.17" width="3.66" shape="238448.73,40034.83 238449.03,40034.84"/>
        <lane id=":j_merge_end_5_0_3" index="3" speed="13.89" length="3.17" width="3.66" shape="238448.62,40038.49 238448.92,40038.50"/>
        <lane id=":j_merge_end_5_0_4" index="4" disallow="all" speed="13.89" length="3.17" width="3.66" shape="238448.51,40042.15 238448.81,40042.16"/>
    </edge>
    <edge id=":j_merge_end_50_0" function="internal">
        <lane id=":j_merge_end_50_0_0" index="0" disallow="all" speed="13.89" length="40.58" width="3.66" shape="19576.01,7622.50 19586.25,7629.53 19591.30,7637.27 19596.34,7645.01 19606.59,7652.03"/>
        <lane id=":j_merge_end_50_0_1" index="1" speed="13.89" length="40.58" width="3.66" shape="19574.53,7625.84 19611.01,7641.98"/>
        <lane id=":j_merge_end_50_0_2" index="2" speed="13.89" length="40.58" width="3.66" shape="19573.05,7629.19 19609.54,7645.33"/>
        <lane id=":j_merge_end_50_0_3" index="3" speed="13.89" length="40.58" width="3.66" shape="19571.57,7632.54 19608.06,7648.68"/>
        <lane id=":j_merge_end_50_0_4" index="4" disallow="all" speed="13.89" length="40.58" width="3.66" shape="19570.09,7635.89 19606.59,7652.03"/>
    </edge>
    <edge id=":j_merge_end_53_0" function="internal">
        <lane id=":j_merge_end_53_0_0" index="0" speed="13.89" length="51.18" width="3.66" shape="178269.09,31236.35 178279.62,31242.57 178290.13,31251.57 178300.68,31260.41 178311.37,31266.17"/>
        <lane id=":j_merge_end_53_0_1" index="1" speed="13.89" length="51.18" width="3.66" shape="178266.59,31243.23 178277.51,31248.37 178288.88,31255.01 178300.29,31261.49 178311.37,31266.17"/>
    </edge>
    <edge id=":j_merge_end_54_0" function="internal">
        <lane id=":j_merge_end_54_0_0" index="0" speed="13.89" length="49.63" width="3.66" shape="41405.69,16798.42 41416.91,16802.65 41428.57,16808.42 41440.22,16814.24 41451.42,16818.57"/>
        <lane id=":j_merge_end_54_0_1" index="1" speed="13.89" length="49.63" width="3.66" shape="41404.73,16801.95 41452.42,16815.05"/>
        <lane id=":j_merge_end_54_0_2" index="2" speed="13.89" length="49.63" width="3.66" shape="41403.77,16805.48 41451.42,16818.57"/>
    </edge>
    <edge id=":j_merge_end_55_0" function="internal">
        <lane id=":j_merge_end_55_0_0" index="0" speed="13.89" length="48.91" width="3.66" shape="54321.81,19397.17 54332.61,19402.14 54343.62,19408.62 54354.62,19415.10 54365.42,19420.06"/>
        <lane id=":j_merge_end_55_0_1" index="1" speed="13.89" length="48.91" width="3.66" shape="54320.61,19400.63 54366.62,19416.60"/>
        <lane id=":j_merge_end_55_0_2" index="2" speed="13.89" length="48.91" width="3.66" shape="54319.41,19404.08 54365.42,19420.06"/>
    </edge>
    <edge id=":j_merge_end_6_0" function="internal">
        <lane id=":j_merge_end_6_0_0" index="0" disallow="all" speed="13.89" length="3.16" width="3.66" shape="231883.91,40031.64 231883.69,40046.28"/>
        <lane id=":j_merge_end_6_0_1" index="1" speed="13.89" length="3.16" width="3.66" shape="231883.79,40035.29 231884.09,40035.30"/>
        <lane id=":j_merge_end_6_0_2" index="2" speed="13.89" length="3.16" width="3.66" shape="231883.66,40038.95 231883.96,40038.96"/>
        <lane id=":j_merge_end_6_0_3" index="3" speed="13.89" length="3.16" width="3.66" shape="231883.53,40042.61 231883.82,40042.62"/>
        <lane id=":j_merge_end_6_0_4" index="4" disallow="all" speed="13.89" length="3.16" width="3.66" shape="231883.41,40046.27 231883.69,40046.28"/>
    </edge>
    <edge id=":j_merge_end_7_0" function="internal">
        <lane id=":j_merge_end_7_0_0" index="0" disallow="all" speed="13.89" length="3.17" width="3.66" shape="230798.92,39993.70 230798.70,40008.35"/>
        <lane id=":j_merge_end_7_0_1" index="1" speed="13.89" length="3.17" width="3.66" shape="230798.79,39997.36 230799.09,39997.37"/>
        <lane id=":j_merge_end_7_0_2" index="2" speed="13.89" length="3.17" width="3.66" shape="230798.66,40001.02 230798.96,40001.03"/>
        <lane id=":j_merge_end_7_0_3" index="3" speed="13.89" length="3.17" width="3.66" shape="230798.54,40004.68 230798.83,40004.69"/>
        <lane id=":j_merge_end_7_0_4" index="4" disallow="all" speed="13.89" length="3.17" width="3.66" shape="230798.41,40008.34 230798.70,40008.35"/>
    </edge>
    <edge id=":j_merge_end_8_0" function="internal">
        <lane id=":j_merge_end_8_0_0" index="0" disallow="all" speed="13.89" length="39.09" width="3.66" shape="1868.81,666.41 1878.97,673.18 1883.50,681.53 1888.03,689.88 1898.18,696.65"/>
        <lane id=":j_merge_end_8_0_1" index="1" speed="13.89" length="39.09" width="3.66" shape="1866.28,673.28 1901.98,686.35"/>
        <lane id=":j_merge_end_8_0_2" index="2" speed="13.89" length="39.09" width="3.66" shape="1865.02,676.71 1900.71,689.78"/>
        <lane id=":j_merge_end_8_0_3" index="3" speed="13.89" length="39.09" width="3.66" shape="1863.76,680.15 1899.45,693.22"/>
        <lane id=":j_merge_end_8_0_4" index="4" disallow="all" speed="13.89" length="39.09" width="3.66" shape="1862.49,683.58 1898.18,696.65"/>
    </edge>
    <edge id=":j_merge_start_1_0" function="internal">
        <lane id=":j_merge_start_1_0_0" index="0" speed="13.89" length="311.80" width="3.66" shape="221221.75,38812.99 221532.76,38790.78"/>
    </edge>
    <edge id=":j_merge_start_1_1" function="internal">
        <lane id=":j_merge_start_1_1_0" index="0" speed="13.89" length="292.68" width="3.66" shape="221242.39,38827.71 221533.18,38794.42"/>
        <lane id=":j_merge_start_1_1_1" index="1" speed="13.89" length="292.68" width="3.66" shape="221242.82,38831.34 221533.60,38798.05"/>
        <lane id=":j_merge_start_1_1_2" index="2" speed="13.89" length="292.68" width="3.66" shape="221243.24,38834.98 221534.02,38801.69"/>
        <lane id=":j_merge_start_1_1_3" index="3" disallow="all" speed="13.89" length="292.68" width="3.66" shape="221243.67,38838.61 221534.44,38805.32"/>
    </edge>
    <edge id=":j_merge_start_12_0" function="internal">
        <lane id=":j_merge_start_12_0_0" index="0" speed="13.89" length="77.11" width="3.66" shape="30114.90,12557.84 30124.64,12564.93 30143.25,12578.02 30163.46,12592.11 30177.96,12602.22"/>
    </edge>
    <edge id=":j_merge_start_12_1" function="internal">
        <lane id=":j_merge_start_12_1_0" index="0" speed="13.89" length="77.30" width="3.66" shape="30112.59,12560.83 30175.86,12605.22"/>
        <lane id=":j_merge_start_12_1_1" index="1" speed="13.89" length="77.30" width="3.66" shape="30110.47,12563.82 30173.76,12608.22"/>
    </edge>
    <edge id=":j_merge_start_22_0" function="internal">
        <lane id=":j_merge_start_22_0_0" index="0" speed="13.89" length="74.86" width="3.66" shape="62839.00,22176.60 62910.24,22199.60"/>
    </edge>
    <edge id=":j_merge_start_22_1" function="internal">
        <lane id=":j_merge_start_22_1_0" index="0" speed="13.89" length="74.82" width="3.66" shape="62837.88,22180.21 62909.11,22203.08"/>
        <lane id=":j_merge_start_22_1_1" index="1" speed="13.89" length="74.82" width="3.66" shape="62836.76,22183.69 62907.99,22206.57"/>
    </edge>
    <edge id=":j_merge_start_23_0" function="internal">
        <lane id=":j_merge_start_23_0_0" index="0" speed="13.89" length="58.77" width="3.66" shape="66232.21,22668.49 66290.83,22664.32"/>
    </edge>
    <edge id=":j_merge_start_23_1" function="internal">
        <lane id=":j_merge_start_23_1_0" index="0" speed="13.89" length="58.74" width="3.66" shape="66232.52,22672.20 66291.10,22667.97"/>
        <lane id=":j_merge_start_23_1_1" index="1" speed="13.89" length="58.74" width="3.66" shape="66232.78,22675.85 66291.38,22671.62"/>
    </edge>
    <edge id=":j_merge_start_24_0" function="internal">
        <lane id=":j_merge_start_24_0_0" index="0" speed="13.89" length="55.19" width="3.66" shape="72836.53,23013.27 72844.94,23015.18 72859.86,23018.19 72876.64,23021.47 72890.63,23024.22"/>
    </edge>
    <edge id=":j_merge_start_24_1" function="internal">
        <lane id=":j_merge_start_24_1_0" index="0" speed="13.89" length="55.37" width="3.66" shape="72835.62,23016.96 72889.91,23027.81"/>
        <lane id=":j_merge_start_24_1_1" index="1" speed="13.89" length="55.37" width="3.66" shape="72834.91,23020.55 72889.20,23031.40"/>
    </edge>
    <edge id=":j_merge_start_25_0" function="internal">
        <lane id=":j_merge_start_25_0_0" index="0" speed="13.89" length="89.79" width="3.66" shape="81156.51,22765.06 81170.52,22764.52 81197.59,22763.02 81226.54,22761.31 81246.16,22760.14"/>
    </edge>
    <edge id=":j_merge_start_25_1" function="internal">
        <lane id=":j_merge_start_25_1_0" index="0" speed="13.89" length="89.81" width="3.66" shape="81156.71,22768.89 81246.37,22763.80"/>
        <lane id=":j_merge_start_25_1_1" index="1" speed="13.89" length="89.81" width="3.66" shape="81156.91,22772.54 81246.58,22767.45"/>
    </edge>
    <edge id=":j_merge_start_29_0" function="internal">
        <lane id=":j_merge_start_29_0_0" index="0" speed="13.89" length="65.15" width="3.66" shape="120200.94,28524.84 120266.04,28527.38"/>
    </edge>
    <edge id=":j_merge_start_29_1" function="internal">
        <lane id=":j_merge_start_29_1_0" index="0" speed="13.89" length="65.13" width="3.66" shape="120200.82,28528.59 120265.90,28531.03"/>
        <lane id=":j_merge_start_29_1_1" index="1" speed="13.89" length="65.13" width="3.66" shape="120200.66,28532.24 120265.75,28534.69"/>
    </edge>
    <edge id=":j_merge_start_3_0" function="internal">
        <lane id=":j_merge_start_3_0_0" index="0" speed="13.89" length="3.04" width="3.66" shape="234489.51,39907.50 234490.40,39907.60 234491.00,39907.77 234491.60,39907.94 234492.49,39908.03"/>
    </edge>
    <edge id=":j_merge_start_3_1" function="internal">
        <lane id=":j_merge_start_3_1_0" index="0" speed="13.89" length="3.01" width="3.66" shape="234489.40,39911.60 234492.39,39911.69"/>
        <lane id=":j_merge_start_3_1_1" index="1" speed="13.89" length="3.01" width="3.66" shape="234489.28,39915.26 234492.29,39915.35"/>
        <lane id=":j_merge_start_3_1_2" index="2" speed="13.89" length="3.01" width="3.66" shape="234489.17,39918.91 234492.18,39919.01"/>
        <lane id=":j_merge_start_3_1_3" index="3" disallow="all" speed="13.89" length="3.01" width="3.66" shape="234489.05,39922.57 234492.08,39922.66"/>
    </edge>
    <edge id=":j_merge_start_31_0" function="internal">
        <lane id=":j_merge_start_31_0_0" index="0" speed="13.89" length="69.82" width="3.66" shape="139524.86,28561.83 139593.34,28575.44"/>
    </edge>
    <edge id=":j_merge_start_31_1" function="internal">
        <lane id=":j_merge_start_31_1_0" index="0" speed="13.89" length="69.73" width="3.66" shape="139524.22,28565.52 139592.64,28579.03"/>
        <lane id=":j_merge_start_31_1_1" index="1" speed="13.89" length="69.73" width="3.66" shape="139523.52,28569.11 139591.93,28582.62"/>
    </edge>
    <edge id=":j_merge_start_32_0" function="internal">
        <lane id=":j_merge_start_32_0_0" index="0" speed="13.89" length="55.10" width="3.66" shape="144493.68,28539.50 144544.30,28517.75"/>
    </edge>
    <edge id=":j_merge_start_32_1" function="internal">
        <lane id=":j_merge_start_32_1_0" index="0" speed="13.89" length="55.00" width="3.66" shape="144495.23,28542.85 144545.75,28521.11"/>
        <lane id=":j_merge_start_32_1_1" index="1" speed="13.89" length="55.00" width="3.66" shape="144496.68,28546.21 144547.20,28524.47"/>
    </edge>
    <edge id=":j_merge_start_39_0" function="internal">
        <lane id=":j_merge_start_39_0_0" index="0" speed="13.89" length="61.95" width="3.66" shape="202024.82,36591.93 202085.03,36606.51"/>
    </edge>
    <edge id=":j_merge_start_39_1" function="internal">
        <lane id=":j_merge_start_39_1_0" index="0" speed="13.89" length="61.81" width="3.66" shape="202022.87,36604.02 202083.88,36613.74"/>
        <lane id=":j_merge_start_39_1_1" index="1" speed="13.89" length="61.81" width="3.66" shape="202022.27,36607.63 202083.30,36617.35"/>
        <lane id=":j_merge_start_39_1_2" index="2" speed="13.89" length="61.81" width="3.66" shape="202021.66,36611.24 202082.72,36620.97"/>
        <lane id=":j_merge_start_39_1_3" index="3" disallow="all" speed="13.89" length="61.81" width="3.66" shape="202021.06,36614.85 202082.14,36624.58"/>
    </edge>
    <edge id=":j_merge_start_40_0" function="internal">
        <lane id=":j_merge_start_40_0_0" index="0" speed="13.89" length="65.67" width="3.66" shape="205714.57,37274.25 205777.49,37293.08"/>
    </edge>
    <edge id=":j_merge_start_40_1" function="internal">
        <lane id=":j_merge_start_40_1_0" index="0" speed="13.89" length="65.47" width="3.66" shape="205712.02,37286.10 205775.93,37300.23"/>
        <lane id=":j_merge_start_40_1_1" index="1" speed="13.89" length="65.47" width="3.66" shape="205711.23,37289.68 205775.16,37303.81"/>
        <lane id=":j_merge_start_40_1_2" index="2" speed="13.89" length="65.47" width="3.66" shape="205710.44,37293.25 205774.38,37307.39"/>
        <lane id=":j_merge_start_40_1_3" index="3" disallow="all" speed="13.89" length="65.47" width="3.66" shape="205709.65,37296.82 205773.60,37310.96"/>
    </edge>
    <edge id=":j_merge_start_42_0" function="internal">
        <lane id=":j_merge_start_42_0_0" index="0" speed="13.89" length="85.28" width="3.66" shape="210942.02,37713.28 210952.05,37718.24 210972.22,37727.17 210996.87,37737.55 211020.38,37746.86"/>
    </edge>
    <edge id=":j_merge_start_42_1" function="internal">
        <lane id=":j_merge_start_42_1_0" index="0" speed="13.89" length="86.29" width="3.66" shape="210937.03,37723.32 211017.80,37753.71"/>
        <lane id=":j_merge_start_42_1_1" index="1" speed="13.89" length="86.29" width="3.66" shape="210935.74,37726.75 211016.51,37757.14"/>
        <lane id=":j_merge_start_42_1_2" index="2" speed="13.89" length="86.29" width="3.66" shape="210934.46,37730.18 211015.22,37760.56"/>
        <lane id=":j_merge_start_42_1_3" index="3" disallow="all" speed="13.89" length="86.29" width="3.66" shape="210933.17,37733.61 211013.93,37763.99"/>
    </edge>
    <edge id=":j_merge_start_43_0" function="internal">
        <lane id=":j_merge_start_43_0_0" index="0" speed="13.89" length="68.95" width="3.66" shape="215213.15,39270.28 215281.50,39279.37"/>
    </edge>
    <edge id=":j_merge_start_43_1" function="internal">
        <lane id=":j_merge_start_43_1_0" index="0" speed="13.89" length="68.97" width="3.66" shape="215212.27,39280.11 215280.87,39286.66"/>
        <lane id=":j_merge_start_43_1_1" index="1" speed="13.89" length="68.97" width="3.66" shape="215211.91,39283.75 215280.55,39290.30"/>
        <lane id=":j_merge_start_43_1_2" index="2" speed="13.89" length="68.97" width="3.66" shape="215211.55,39287.40 215280.23,39293.95"/>
        <lane id=":j_merge_start_43_1_3" index="3" disallow="all" speed="13.89" length="68.97" width="3.66" shape="215211.18,39291.04 215279.91,39297.60"/>
    </edge>
    <edge id=":j_merge_start_47_0" function="internal">
        <lane id=":j_merge_start_47_0_0" index="0" speed="13.89" length="79.27" width="3.66" shape="226764.05,40152.00 226841.76,40167.64"/>
    </edge>
    <edge id=":j_merge_start_47_1" function="internal">
        <lane id=":j_merge_start_47_1_0" index="0" speed="13.89" length="79.48" width="3.66" shape="226763.33,40155.87 226841.13,40171.25"/>
        <lane id=":j_merge_start_47_1_1" index="1" speed="13.89" length="79.48" width="3.66" shape="226762.59,40159.46 226840.50,40174.86"/>
        <lane id=":j_merge_start_47_1_2" index="2" speed="13.89" length="79.48" width="3.66" shape="226761.85,40163.04 226839.88,40178.46"/>
        <lane id=":j_merge_start_47_1_3" index="3" disallow="all" speed="13.89" length="79.48" width="3.66" shape="226761.11,40166.63 226839.25,40182.07"/>
    </edge>
    <edge id=":j_merge_start_48_0" function="internal">
        <lane id=":j_merge_start_48_0_0" index="0" speed="4.32" length="7.08" width="3.66" shape="15844.62,5986.09 15843.54,5984.19 15843.54,5982.84 15844.62,5982.02 15846.79,5981.75"/>
    </edge>
    <edge id=":j_merge_start_48_1" function="internal">
        <lane id=":j_merge_start_48_1_0" index="0" speed="13.89" length="186.88" width="3.66" shape="15674.29,5909.78 15845.31,5985.10"/>
        <lane id=":j_merge_start_48_1_1" index="1" speed="13.89" length="186.88" width="3.66" shape="15672.80,5913.13 15843.83,5988.45"/>
    </edge>
    <edge id=":j_merge_start_49_0" function="internal">
        <lane id=":j_merge_start_49_0_0" index="0" speed="13.89" length="63.84" width="3.66" shape="21374.05,8412.54 21432.44,8438.33"/>
    </edge>