<?xml version='1.0' encoding='utf-8'?>
<edges>
    <edge id="0.0" from="node_0_start" to="junction_57" numLanes="2" speed="13.89" type="town" shape="738224.76,3287335.31 738220.91,3287334.66 738220.91,3287334.66 738211.06,3287332.81 738211.06,3287332.81 738204.32,3287331.58 738204.32,3287331.58 738195.42,3287330.03 738195.42,3287330.03 738189.05,3287328.95 738189.05,3287328.95 738178.30,3287327.35 738178.30,3287327.35 738162.55,3287325.34 738162.55,3287325.34 738141.42,3287321.46 738141.42,3287321.46 738130.39,3287319.16 738130.39,3287319.16 738123.67,3287317.55 738123.67,3287317.55 738116.55,3287315.70 738116.55,3287315.70 738109.58,3287313.76 738109.58,3287313.76 738102.29,3287311.52">
        <lane index="0" width="3.66" type="shoulder" disallow="all" />
        <lane index="1" width="3.66" />
    </edge>
    <edge id="1.0" from="node_1_start" to="node_1_end" numLanes="5" speed="13.89" type="town" shape="790106.06,3298185.49 790109.80,3298186.62 790109.80,3298186.62 790113.53,3298187.75 790113.53,3298187.75 790117.27,3298188.88 790117.27,3298188.88 790121.00,3298190.01 790121.00,3298190.01 790124.74,3298191.14 790124.74,3298191.14 790128.48,3298192.27 790128.48,3298192.27 790132.21,3298193.40 790132.21,3298193.40 790135.95,3298194.53 790135.95,3298194.53 790139.68,3298195.66 790139.68,3298195.66 790143.42,3298196.79 790143.42,3298196.79 790147.15,3298197.92 790147.15,3298197.92 790150.89,3298199.04 790150.89,3298199.04 790154.63,3298200.17 790154.63,3298200.17 790158.36,3298201.30 790158.36,3298201.30 790162.10,3298202.43 790162.10,3298202.43 790165.83,3298203.56 790165.83,3298203.56 790169.57,3298204.69 790169.57,3298204.69 790173.31,3298205.81 790173.31,3298205.81 790177.04,3298206.94 790177.04,3298206.94 790180.78,3298208.07 790180.78,3298208.07 790184.51,3298209.20 790184.51,3298209.20 790188.25,3298210.33 790188.25,3298210.33 790191.99,3298211.45 790191.99,3298211.45 790195.72,3298212.58 790195.72,3298212.58 790199.46,3298213.71 790199.46,3298213.71 790203.20,3298214.84 790203.20,3298214.84 790206.93,3298215.96 790206.93,3298215.96 790210.67,3298217.09 790210.67,3298217.09 790214.40,3298218.22 790214.40,3298218.22 790218.14,3298219.35 790218.14,3298219.35 790221.88,3298220.47 790221.88,3298220.47 790225.61,3298221.60 790225.61,3298221.60 790229.35,3298222.73 790229.35,3298222.73 790233.09,3298223.85 790233.09,3298223.85 790236.82,3298224.98 790236.82,3298224.98 790240.56,3298226.11 790240.56,3298226.11 790244.30,3298227.24 790244.30,3298227.24 790248.03,3298228.36 790248.03,3298228.36 790251.77,3298229.49 790251.77,3298229.49 790255.50,3298230.62 790255.50,3298230.62 790259.24,3298231.74 790259.24,3298231.74 790262.98,3298232.87 790262.98,3298232.87 790266.71,3298234.00 790266.71,3298234.00 790270.45,3298235.12 790270.45,3298235.12 790274.19,3298236.25">
        <lane index="0" width="3.66" type="shoulder" disallow="all" />
        <lane index="1" width="3.66" />
        <lane index="2" width="3.66" />
        <lane index="3" width="3.66" />
        <lane index="4" width="3.66" type="shoulder" disallow="all" />
    </edge>
    <edge id="10.0" from="j_merge_end_3" to="junction_59" numLanes="5" speed="13.89" type="town" shape="798694.12,3298103.28 798712.99,3298104.17 798712.99,3298104.17 799066.80,3298114.89">
        <lane index="0" width="3.66" type="shoulder" disallow="all" />
        <lane index="1" width="3.66" />
        <lane index="2" width="3.66" />
        <lane index="3" width="3.66" />
        <lane index="4" width="3.66" type="shoulder" disallow="all" />
    </edge>
    <edge id="100.0" from="node_100_start" to="node_100_end" numLanes="5" speed="13.89" type="town" shape="564432.67,3258370.64 564439.66,3258373.23">
        <lane index="0" width="3.66" type="shoulder" disallow="all" />
        <lane index="1" width="3.66" />
        <lane index="2" width="3.66" />
        <lane index="3" width="3.66" />
        <lane index="4" width="3.66" type="shoulder" disallow="all" />
    </edge>
    <edge id="103.0" from="node_103_start" to="j_merge_start_8" numLanes="1" speed="13.89" type="town" shape="565373.27,3258690.43 565382.05,3258693.90 565382.05,3258693.90 565396.11,3258699.46 565396.11,3258699.46 565414.34,3258706.55 565414.34,3258706.55 565432.04,3258713.50 565432.04,3258713.50 565447.92,3258719.68 565447.92,3258719.68 565465.12,3258726.26 565465.12,3258726.26 565483.49,3258733.01 565483.49,3258733.01 565490.71,3258735.66">
        <lane index="0" width="3.66" />
    </edge>
    <edge id="104.0" from="node_104_start" to="node_104_end" numLanes="3" speed="13.89" type="town" shape="569768.83,3260164.57 569800.48,3260176.57 569800.48,3260176.57 569844.97,3260193.29 569844.97,3260193.29 569919.01,3260221.17 569919.01,3260221.17 569990.04,3260247.86 569990.04,3260247.86 570079.65,3260281.63 570079.65,3260281.63 570127.01,3260299.52">
        <lane index="0" width="3.66" />
        <lane index="1" width="3.66" />
        <lane index="2" width="3.66" />
    </edge>
    <edge id="105.0" from="node_105_start" to="node_104_start" numLanes="3" speed="13.89" type="town" shape="569656.01,3260122.11 569684.83,3260133.08 569684.83,3260133.08 569744.02,3260155.50 569744.02,3260155.50 569768.83,3260164.57">
        <lane index="0" width="3.66" />
        <lane index="1" width="3.66" />
        <lane index="2" width="3.66" />
    </edge>
    <edge id="106.0" from="node_106_start" to="node_106_end" numLanes="2" speed="13.89" type="town" shape="572891.43,3261363.44 572910.64,3261371.16 572910.64,3261371.16 572945.50,3261384.80 572945.50,3261384.80 572995.44,3261404.62 572995.44,3261404.62 573041.05,3261422.77 573041.05,3261422.77 573075.54,3261436.47 573075.54,3261436.47 573110.11,3261450.23 573110.11,3261450.23 573150.24,3261466.17 573150.24,3261466.17 573188.74,3261481.48 573188.74,3261481.48 573222.66,3261494.98 573222.66,3261494.98 573256.58,3261508.43 573256.58,3261508.43 573283.97,3261519.18 573283.97,3261519.18 573311.05,3261530.09 573311.05,3261530.09 573342.38,3261542.42 573342.38,3261542.42 573380.71,3261557.67 573380.71,3261557.67 573416.21,3261571.83 573416.21,3261571.83 573449.02,3261584.65 573449.02,3261584.65 573475.31,3261595.23 573475.31,3261595.23 573503.19,3261606.22 573503.19,3261606.22 573533.29,3261618.13 573533.29,3261618.13 573568.38,3261632.15 573568.38,3261632.15 573596.36,3261643.27 573596.36,3261643.27 573630.62,3261656.90 573630.62,3261656.90 573658.18,3261667.78 573658.18,3261667.78 573691.56,3261681.09 573691.56,3261681.09 573714.97,3261690.36 573714.97,3261690.36 573748.69,3261703.76 573748.69,3261703.76 573784.53,3261717.97 573784.53,3261717.97 573819.10,3261731.62 573819.10,3261731.62 573847.50,3261742.87 573847.50,3261742.87 573885.39,3261758.05 573885.39,3261758.05 573914.37,3261769.55 573914.37,3261769.55 573956.97,3261786.49 573956.97,3261786.49 573995.25,3261801.60 573995.25,3261801.60 574027.71,3261814.52 574027.71,3261814.52 574071.07,3261831.71 574071.07,3261831.71 574086.28,3261837.88 574086.28,3261837.88 574106.72,3261846.11">
        <lane index="0" width="3.66" />
        <lane index="1" width="3.66" />
    </edge>
    <edge id="107.0" from="node_107_start" to="node_107_end" numLanes="2" speed="13.89" type="town" shape="574444.59,3261980.08 574464.56,3261987.98 574464.56,3261987.98 574478.05,3261993.23 574478.05,3261993.23 574491.25,3261998.54 574491.25,3261998.54 574512.88,3262007.17 574512.88,3262007.17 574530.43,3262014.08 574530.43,3262014.08 574544.33,3262019.69 574544.33,3262019.69 574569.15,3262029.57 574569.15,3262029.57 574589.19,3262037.52 574589.19,3262037.52 574611.73,3262046.32 574611.73,3262046.32 574631.22,3262054.13 574631.22,3262054.13 574652.90,3262062.63 574652.90,3262062.63 574670.22,3262069.62 574670.22,3262069.62 574694.29,3262079.04 574694.29,3262079.04 574717.35,3262088.18 574717.35,3262088.18 574742.69,3262098.28 574742.69,3262098.28 574765.73,3262107.39 574765.73,3262107.39 574794.75,3262118.97 574794.75,3262118.97 574822.01,3262129.76 574822.01,3262129.76 574848.31,3262140.18 574848.31,3262140.18 574865.43,3262147.06 574865.43,3262147.06 574888.06,3262155.93 574888.06,3262155.93 574910.40,3262164.88 574910.40,3262164.88 574927.64,3262171.68 574927.64,3262171.68 574948.20,3262179.73 574948.20,3262179.73 574965.28,3262186.62 574965.28,3262186.62 574984.70,3262194.30 574984.70,3262194.30 575009.39,3262204.03 575009.39,3262204.03 575031.49,3262212.94 575031.49,3262212.94 575053.52,3262221.74 575053.52,3262221.74 575072.82,3262229.34 575072.82,3262229.34 575089.38,3262236.02 575089.38,3262236.02 575121.39,3262248.58 575121.39,3262248.58 575152.28,3262260.77 575152.28,3262260.77 575188.53,3262274.95 575188.53,3262274.95 575216.45,3262285.52 575216.45,3262285.52 575246.56,3262297.23 575246.56,3262297.23 575270.30,3262306.81 575270.30,3262306.81 575289.87,3262314.54 575289.87,3262314.54 575310.12,3262322.93 575310.12,3262322.93 575329.83,3262330.89 575329.83,3262330.89 575347.97,3262338.57 575347.97,3262338.57 575366.50,3262345.93 575366.50,3262345.93 575390.43,3262355.45 575390.43,3262355.45 575419.29,3262366.81 575419.29,3262366.81 575446.73,3262377.68 575446.73,3262377.68 575470.18,3262387.06 575470.18,3262387.06 575501.60,3262399.33 575501.60,3262399.33 575522.75,3262407.74 575522.75,3262407.74 575545.43,3262416.74">
        <lane index="0" width="3.66" />
        <lane index="1" width="3.66" />
    </edge>
    <edge id="108.0" from="node_108_start" to="node_106_start" numLanes="2" speed="13.89" type="town" shape="572596.43,3261246.42 572614.91,3261253.56 572614.91,3261253.56 572643.99,3261265.15 572643.99,3261265.15 572678.95,3261279.15 572678.95,3261279.15 572705.98,3261289.82 572705.98,3261289.82 572742.20,3261304.11 572742.20,3261304.11 572777.30,3261318.18 572777.30,3261318.18 572809.81,3261331.10 572809.81,3261331.10 572837.95,3261342.28 572837.95,3261342.28 572869.27,3261354.73 572869.27,3261354.73 572891.43,3261363.44">
        <lane index="0" width="3.66" />
        <lane index="1" width="3.66" />
    </edge>
    <edge id="109.0" from="node_109_start" to="node_109_end" numLanes="1" speed="13.89" type="town" shape="574409.24,3261936.30 574435.56,3261942.69 574435.56,3261942.69 574446.40,3261945.81 574446.40,3261945.81 574457.21,3261948.76 574457.21,3261948.76 574463.51,3261951.01 574463.51,3261951.01 574473.80,3261954.93">
        <lane index="0" width="3.66" />
    </edge>
    <edge id="110.0" from="node_110_start" to="node_110_end" numLanes="2" speed="13.89" type="town" shape="579346.02,3263987.28 579370.36,3263997.35 579370.36,3263997.35 579386.39,3264004.29 579386.39,3264004.29 579401.82,3264011.09 579401.82,3264011.09 579419.73,3264019.05">
        <lane index="0" width="3.66" />
        <lane index="1" width="3.66" />
    </edge>
    <edge id="111.0" from="node_111_start" to="j_merge_start_48" numLanes="3" speed="13.89" type="town" shape="579517.13,3264066.03 579538.11,3264075.33 579538.11,3264075.33 579559.11,3264084.64">
        <lane index="0" width="3.66" />
        <lane index="1" width="3.66" />
        <lane index="2" width="3.66" />
    </edge>
    <edge id="112.0" from="node_112_start" to="node_112_end" numLanes="2" speed="13.89" type="town" shape="577315.34,3263119.34 577338.03,3263128.57 577338.03,3263128.57 577356.84,3263135.90 577356.84,3263135.90 577367.67,3263140.21">
        <lane index="0" width="3.66" />
        <lane index="1" width="3.66" />
    </edge>
    <edge id="113.0" from="node_113_start" to="node_113_end" numLanes="2" speed="13.89" type="town" shape="578534.59,3263636.21 578559.34,3263647.01 578559.34,3263647.01 578568.71,3263651.12 578568.71,3263651.12 578581.34,3263656.62">
        <lane index="0" width="3.66" />
        <lane index="1" width="3.66" />
    </edge>
    <edge id="114.0" from="node_114_start" to="node_112_start" numLanes="2" speed="13.89" type="town" shape="577244.20,3263090.96 577258.20,3263096.84 577258.20,3263096.84 577280.72,3263105.73 577280.72,3263105.73 577315.34,3263119.34">
        <lane index="0" width="3.66" />
        <lane index="1" width="3.66" />
    </edge>
    <edge id="115.0" from="node_115_start" to="node_115_end" numLanes="2" speed="13.89" type="town" shape="577577.03,3263223.30 577596.59,3263231.20 577596.59,3263231.20 577632.75,3263245.53 577632.75,3263245.53 577668.45,3263259.74 577668.45,3263259.74 577706.09,3263274.51 577706.09,3263274.51 577740.21,3263288.36 577740.21,3263288.36 577774.41,3263302.28 577774.41,3263302.28 577815.68,3263319.61 577815.68,3263319.61 577854.21,3263336.07 577854.21,3263336.07 577888.23,3263351.02 577888.23,3263351.02 577932.34,3263369.94 577932.34,3263369.94 577972.04,3263387.20 577972.04,3263387.20 578016.82,3263407.03 578016.82,3263407.03 578047.94,3263421.33 578047.94,3263421.33 578104.77,3263446.49 578104.77,3263446.49 578160.52,3263471.08 578160.52,3263471.08 578212.46,3263493.88 578212.46,3263493.88 578280.79,3263524.06">
        <lane index="0" width="3.66" />
        <lane index="1" width="3.66" />
    </edge>
    <edge id="116.0" from="node_112_end" to="node_115_start" numLanes="2" speed="13.89" type="town" shape="577367.67,3263140.21 577393.97,3263150.73 577393.97,3263150.73 577452.04,3263173.68 577452.04,3263173.68 577485.94,3263187.07 577485.94,3263187.07 577513.36,3263197.92 577513.36,3263197.92 577550.89,3263212.90 577550.89,3263212.90 577570.37,3263220.67 577570.37,3263220.67 577577.03,3263223.30">
        <lane index="0" width="3.66" />
        <lane index="1" width="3.66" />
    </edge>
    <edge id="117.0" from="node_115_end" to="node_113_start" numLanes="2" speed="13.89" type="town" shape="578280.79,3263524.06 578310.27,3263537.03 578310.27,3263537.03 578337.46,3263549.15 578337.46,3263549.15 578382.24,3263568.85 578382.24,3263568.85 578445.91,3263596.91 578445.91,3263596.91 578469.97,3263607.49 578469.97,3263607.49 578481.38,3263612.62 578481.38,3263612.62 578493.24,3263617.74 578493.24,3263617.74 578513.66,3263626.85 578513.66,3263626.85 578524.08,3263631.56 578524.08,3263631.56 578534.59,3263636.21">
        <lane index="0" width="3.66" />
        <lane index="1" width="3.66" />
    </edge>
    <edge id="119.0" from="junction_108" to="junction_9" numLanes="3" speed="13.89" type="town" shape="585828.12,3266842.55 585833.34,3266844.86 585833.34,3266844.86 585847.74,3266851.19 585847.74,3266851.19 585864.69,3266858.68 585864.69,3266858.68 585874.86,3266863.21 585874.86,3266863.21 585893.07,3266871.27 585893.07,3266871.27 585907.17,3266877.51 585907.17,3266877.51 585925.21,3266885.40 585925.21,3266885.40 585936.61,3266890.33 585936.61,3266890.33 585945.87,3266894.33 585945.87,3266894.33 585966.61,3266903.32 585966.61,3266903.32 585979.29,3266908.75 585979.29,3266908.75 585990.54,3266913.46 585990.54,3266913.46 585999.11,3266917.01 585999.11,3266917.01 586008.11,3266920.67 586008.11,3266920.67 586017.10,3266924.19 586017.10,3266924.19 586026.59,3266927.85 586026.59,3266927.85 586036.29,3266931.40 586036.29,3266931.40 586043.02,3266933.81 586043.02,3266933.81 586050.65,3266936.52 586050.65,3266936.52 586061.23,3266940.18 586061.23,3266940.18 586066.79,3266942.06 586066.79,3266942.06 586074.66,3266944.70 586074.66,3266944.70 586078.04,3266945.81 586078.04,3266945.81 586084.97,3266948.16 586084.97,3266948.16 586094.47,3266951.24 586094.47,3266951.24 586105.87,3266954.91 586105.87,3266954.91 586117.92,3266958.72 586117.92,3266958.72 586129.23,3266962.26 586129.23,3266962.26 586139.89,3266965.60 586139.89,3266965.60 586154.42,3266970.07 586154.42,3266970.07 586158.36,3266971.30">
        <lane index="0" width="3.66" type="shoulder" disallow="all" />
        <lane index="1" width="3.66" />
        <lane index="2" width="3.66" />
    </edge>
    <edge id="121.0" from="junction_108" to="node_121_end" numLanes="1" speed="13.89" type="town" shape="585830.83,3266835.66 585839.80,3266838.38 585839.80,3266838.38 585854.58,3266842.74 585854.58,3266842.74 585865.73,3266846.03 585865.73,3266846.03 585894.93,3266854.27">
        <lane index="0" width="3.66" />
    </edge>
    <edge id="122.0" from="node_122_start" to="junction_65" numLanes="3" speed="13.89" type="town" shape="589040.30,3267898.90 589049.80,3267902.52 589049.80,3267902.52 589057.51,3267905.45 589057.51,3267905.45 589067.97,3267909.44 589067.97,3267909.44 589079.92,3267914.01 589079.92,3267914.01 589091.63,3267918.54 589091.63,3267918.54 589108.16,3267924.86 589108.16,3267924.86 589128.27,3267932.56 589128.27,3267932.56 589150.58,3267941.05 589150.58,3267941.05 589170.05,3267948.54 589170.05,3267948.54 589202.03,3267960.79 589202.03,3267960.79 589236.97,3267974.12 589236.97,3267974.12 589285.40,3267992.71 589285.40,3267992.71 589315.16,3268004.03 589315.16,3268004.03 589357.69,3268020.26 589357.69,3268020.26 589389.23,3268032.33 589389.23,3268032.33 589446.28,3268053.92 589446.28,3268053.92 589482.14,3268067.73 589482.14,3268067.73 589509.97,3268078.31 589509.97,3268078.31 589535.52,3268088.16 589535.52,3268088.16 589545.12,3268091.89">
        <lane index="0" width="3.66" type="shoulder" disallow="all" />
        <lane index="1" width="3.66" />
        <lane index="2" width="3.66" />
    </edge>
    <edge id="123.0" from="node_123_start" to="node_123_end" numLanes="2" speed="13.89" type="town" shape="586322.98,3267021.98 586332.51,3267024.90 586332.51,3267024.90 586340.63,3267027.40 586340.63,3267027.40 586348.65,3267029.90 586348.65,3267029.90 586364.14,3267034.65 586364.14,3267034.65 586368.97,3267036.13 586368.97,3267036.13 586376.46,3267038.51 586376.46,3267038.51 586385.69,3267041.36">
        <lane index="0" width="3.66" />
        <lane index="1" width="3.66" />
    </edge>
    <edge id="124.0" from="node_124_start" to="node_122_start" numLanes="2" speed="13.89" type="town" shape="588980.89,3267876.35 589009.76,3267887.35 589009.76,3267887.35 589026.50,3267893.69 589026.50,3267893.69 589040.30,3267898.90">
        <lane index="0" width="3.66" />
        <lane index="1" width="3.66" />
    </edge>
    <edge id="125.0" from="junction_65" to="node_125_end" numLanes="1" speed="13.89" type="town" shape="589604.64,3268106.83 589610.21,3268108.35 589610.21,3268108.35 589620.07,3268110.91 589620.07,3268110.91 589630.34,3268113.56 589630.34,3268113.56 589641.23,3268116.21 589641.23,3268116.21 589652.00,3268118.71 589652.00,3268118.71 589662.61,3268120.93 589662.61,3268120.93 589673.03,3268122.79 589673.03,3268122.79 589677.97,3268123.66 589677.97,3268123.66 589683.61,3268124.58 589683.61,3268124.58 589687.56,3268124.91 589687.56,3268124.91 589690.89,3268124.53 589690.89,3268124.53 589694.07,3268123.88 589694.07,3268123.88 589697.31,3268122.67">
        <lane index="0" width="3.66" />
    </edge>
    <edge id="126.0" from="node_124_start" to="node_122_start" numLanes="1" speed="13.89" type="town" shape="588983.12,3267869.81 589041.55,3267895.54">
        <lane index="0" width="3.66" />
    </edge>
    <edge id="127.0" from="junction_9" to="node_123_start" numLanes="3" speed="13.89" type="town" shape="586217.16,3266989.31 586225.95,3266991.99 586225.95,3266991.99 586239.84,3266996.25 586239.84,3266996.25 586250.11,3266999.46 586250.11,3266999.46 586257.87,3267001.89 586257.87,3267001.89 586266.10,3267004.44 586266.10,3267004.44 586276.42,3267007.64 586276.42,3267007.64 586288.90,3267011.48 586288.90,3267011.48 586306.53,3267016.91 586306.53,3267016.91 586322.98,3267021.98">
        <lane index="0" width="3.66" />
        <lane index="1" width="3.66" />
        <lane index="2" width="3.66" />
    </edge>
    <edge id="128.0" from="node_128_start" to="node_128_end" numLanes="3" speed="13.89" type="town" shape="589666.12,3268138.02 589675.24,3268141.55 589675.24,3268141.55 589689.13,3268146.87 589689.13,3268146.87 589702.52,3268151.94 589702.52,3268151.94 589713.86,3268156.27 589713.86,3268156.27 589727.46,3268161.49 589727.46,3268161.49 589752.87,3268171.25 589752.87,3268171.25 589769.08,3268177.49 589769.08,3268177.49 589784.82,3268183.52 589784.82,3268183.52 589799.48,3268189.12">
        <lane index="0" width="3.66" type="shoulder" disallow="all" />
        <lane index="1" width="3.66" />
        <lane index="2" width="3.66" />
    </edge>
    <edge id="13.0" from="junction_4" to="junction_60" numLanes="5" speed="13.89" type="town" shape="800304.29,3298152.18 800339.75,3298153.78 800339.75,3298153.78 800872.44,3298169.36">
        <lane index="0" width="3.66" type="shoulder" disallow="all" />
        <lane index="1" width="3.66" />
        <lane index="2" width="3.66" />
        <lane index="3" width="3.66" />
        <lane index="4" width="3.66" type="shoulder" disallow="all" />
    </edge>
    <edge id="131.0" from="junction_10" to="node_131_end" numLanes="3" speed="13.89" type="town" shape="590139.67,3268319.11 590164.44,3268328.56 590164.44,3268328.56 590185.65,3268336.65 590185.65,3268336.65 590208.10,3268345.18 590208.10,3268345.18 590231.74,3268354.29 590231.74,3268354.29 590251.87,3268361.95">
        <lane index="0" width="3.66" />
        <lane index="1" width="3.66" />
        <lane index="2" width="3.66" />
    </edge>
    <edge id="132.0" from="node_132_start" to="node_132_end" numLanes="3" speed="13.89" type="town" shape="589870.31,3268216.00 589886.10,3268222.06 589886.10,3268222.06 589900.37,3268227.52 589900.37,3268227.52 589906.08,3268229.68">
        <lane index="0" width="3.66" type="shoulder" disallow="all" />
        <lane index="1" width="3.66" />
        <lane index="2" width="3.66" />
    </edge>
    <edge id="133.0" from="node_133_start" to="junction_66" numLanes="3" speed="13.89" type="town" shape="590323.16,3268389.23 590329.77,3268391.76 590329.77,3268391.76 590338.67,3268395.20 590338.67,3268395.20 590351.06,3268399.93 590351.06,3268399.93 590362.69,3268404.38 590362.69,3268404.38 590369.69,3268407.08 590369.69,3268407.08 590378.25,3268410.36 590378.25,3268410.36 590389.56,3268414.69 590389.56,3268414.69 590404.79,3268420.55 590404.79,3268420.55 590416.30,3268425.04 590416.30,3268425.04 590435.02,3268432.21 590435.02,3268432.21 590453.17,3268439.14 590453.17,3268439.14 590466.26,3268444.15 590466.26,3268444.15 590476.25,3268447.92 590476.25,3268447.92 590488.65,3268452.62 590488.65,3268452.62 590501.99,3268457.75 590501.99,3268457.75 590514.85,3268462.65 590514.85,3268462.65 590531.15,3268468.88 590531.15,3268468.88 590547.64,3268475.18 590547.64,3268475.18 590568.16,3268483.08 590568.16,3268483.08 590580.95,3268487.99 590580.95,3268487.99 590595.43,3268493.47 590595.43,3268493.47 590612.46,3268499.99 590612.46,3268499.99 590622.84,3268503.98 590622.84,3268503.98 590641.93,3268511.27 590641.93,3268511.27 590668.50,3268521.45 590668.50,3268521.45 590695.49,3268531.68 590695.49,3268531.68 590729.71,3268544.70 590729.71,3268544.70 590763.45,3268557.70 590763.45,3268557.70 590778.40,3268563.45 590778.40,3268563.45 590799.02,3268571.32 590799.02,3268571.32 590819.12,3268579.05 590819.12,3268579.05 590845.31,3268589.00 590845.31,3268589.00 590881.23,3268602.69 590881.23,3268602.69 590930.11,3268621.51 590930.11,3268621.51 590962.05,3268633.81 590962.05,3268633.81 590996.81,3268647.15 590996.81,3268647.15 591041.94,3268664.38 591041.94,3268664.38 591072.03,3268675.72 591072.03,3268675.72 591115.86,3268692.40 591115.86,3268692.40 591147.20,3268704.41 591147.20,3268704.41 591178.08,3268716.27 591178.08,3268716.27 591223.73,3268733.85 591223.73,3268733.85 591266.11,3268750.04 591266.11,3268750.04 591297.59,3268762.13 591297.59,3268762.13 591327.19,3268773.54 591327.19,3268773.54 591362.62,3268787.09 591362.62,3268787.09 591398.35,3268800.75 591398.35,3268800.75 591430.00,3268812.75 591430.00,3268812.75 591463.32,3268825.49 591463.32,3268825.49 591467.55,3268827.12 591467.55,3268827.12 591484.72,3268833.70 591484.72,3268833.70 591506.32,3268841.91 591506.32,3268841.91 591526.74,3268849.72 591526.74,3268849.72 591540.88,3268855.07 591540.88,3268855.07 591560.92,3268862.73 591560.92,3268862.73 591585.13,3268871.94 591585.13,3268871.94 591608.49,3268880.87 591608.49,3268880.87 591627.83,3268888.24 591627.83,3268888.24 591656.98,3268899.41 591656.98,3268899.41 591688.31,3268911.47 591688.31,3268911.47 591717.13,3268922.46 591717.13,3268922.46 591759.02,3268938.61 591759.02,3268938.61 591795.04,3268952.30 591795.04,3268952.30 591842.12,3268970.36 591842.12,3268970.36 591872.95,3268982.04 591872.95,3268982.04 591906.02,3268994.66 591906.02,3268994.66 591950.46,3269011.54 591950.46,3269011.54 591982.47,3269023.68 591982.47,3269023.68 592007.69,3269033.37 592007.69,3269033.37 592037.62,3269044.80 592037.62,3269044.80 592057.80,3269052.47 592057.80,3269052.47 592126.98,3269079.01 592126.98,3269079.01 592162.99,3269092.76 592162.99,3269092.76 592192.57,3269104.07 592192.57,3269104.07 592214.24,3269112.27 592214.24,3269112.27 592237.90,3269121.29 592237.90,3269121.29 592269.83,3269133.46 592269.83,3269133.46 592296.81,3269143.71 592296.81,3269143.71 592321.56,3269153.18 592321.56,3269153.18 592348.07,3269163.49 592348.07,3269163.49 592364.87,3269170.00 592364.87,3269170.00 592387.05,3269178.69 592387.05,3269178.69 592409.16,3269187.49 592409.16,3269187.49 592427.46,3269195.08">
        <lane index="0" width="3.66" type="shoulder" disallow="all" />
        <lane index="1" width="3.66" />
        <lane index="2" width="3.66" />
    </edge>
    <edge id="134.0" from="node_128_end" to="node_132_start" numLanes="3" speed="13.89" type="town" shape="589799.48,3268189.12 589805.59,3268191.41 589805.59,3268191.41 589815.45,3268195.14 589815.45,3268195.14 589831.65,3268201.28 589831.65,3268201.28 589846.47,3268206.94 589846.47,3268206.94 589865.63,3268214.20 589865.63,3268214.20 589870.31,3268216.00">
        <lane index="0" width="3.66" type="shoulder" disallow="all" />
        <lane index="1" width="3.66" />
        <lane index="2" width="3.66" />
    </edge>
    <edge id="136.0" from="node_123_start" to="node_123_end" numLanes="1" speed="13.89" type="town" shape="586325.14,3267015.39 586386.71,3267037.83">
        <lane index="0" width="3.66" />
    </edge>
    <edge id="139.0" from="node_131_end" to="node_133_start" numLanes="2" speed="13.89" type="town" shape="590251.87,3268361.95 590265.29,3268367.04 590265.29,3268367.04 590279.74,3268372.53 590279.74,3268372.53 590300.91,3268380.69 590300.91,3268380.69 590323.16,3268389.23">
        <lane index="0" width="3.66" />
        <lane index="1" width="3.66" />
    </edge>
    <edge id="141.0" from="junction_11" to="node_124_start" numLanes="3" speed="13.89" type="town" shape="588860.42,3267830.31 588868.55,3267833.41 588868.55,3267833.41 588875.20,3267835.97 588875.20,3267835.97 588883.32,3267839.06 588883.32,3267839.06 588890.18,3267841.67 588890.18,3267841.67 588900.85,3267845.74 588900.85,3267845.74 588917.48,3267852.04 588917.48,3267852.04 588931.87,3267857.54 588931.87,3267857.54 588949.91,3267864.46 588949.91,3267864.46 588967.85,3267871.31 588967.85,3267871.31 588980.89,3267876.35">
        <lane index="0" width="3.66" />
        <lane index="1" width="3.66" />
        <lane index="2" width="3.66" />
    </edge>
    <edge id="143.0" from="node_132_end" to="node_143_end" numLanes="3" speed="13.89" type="town" shape="589906.08,3268229.68 589919.29,3268234.74 589919.29,3268234.74 589934.98,3268240.75 589934.98,3268240.75 589949.25,3268246.23 589949.25,3268246.23 589970.33,3268254.29 589970.33,3268254.29 589994.39,3268263.48">
        <lane index="0" width="3.66" type="shoulder" disallow="all" />
        <lane index="1" width="3.66" />
        <lane index="2" width="3.66" />
    </edge>
    <edge id="144.0" from="node_144_start" to="junction_11" numLanes="3" speed="13.89" type="town" shape="588281.72,3267627.69 588293.47,3267631.29 588293.47,3267631.29 588300.73,3267633.58 588300.73,3267633.58 588308.30,3267635.93 588308.30,3267635.93 588316.35,3267638.45 588316.35,3267638.45 588323.58,3267640.68 588323.58,3267640.68 588333.57,3267643.79 588333.57,3267643.79 588345.17,3267647.34 588345.17,3267647.34 588361.14,3267652.34 588361.14,3267652.34 588375.57,3267656.86 588375.57,3267656.86 588392.45,3267662.06 588392.45,3267662.06 588411.16,3267667.83 588411.16,3267667.83 588430.89,3267673.92 588430.89,3267673.92 588446.47,3267678.70 588446.47,3267678.70 588461.86,3267683.46 588461.86,3267683.46 588480.74,3267689.29 588480.74,3267689.29 588501.29,3267695.64 588501.29,3267695.64 588516.57,3267700.65 588516.57,3267700.65 588530.48,3267705.38 588530.48,3267705.38 588543.72,3267710.02 588543.72,3267710.02 588557.71,3267715.10 588557.71,3267715.10 588573.79,3267721.07 588573.79,3267721.07 588582.64,3267724.35 588582.64,3267724.35 588595.94,3267729.37 588595.94,3267729.37 588618.95,3267738.00 588618.95,3267738.00 588635.23,3267744.13 588635.23,3267744.13 588650.58,3267749.93 588650.58,3267749.93 588675.30,3267759.33 588675.30,3267759.33 588694.39,3267766.56 588694.39,3267766.56 588727.06,3267779.10 588727.06,3267779.10 588763.47,3267793.13 588763.47,3267793.13 588797.85,3267806.34">
        <lane index="0" width="3.66" type="shoulder" disallow="all" />
        <lane index="1" width="3.66" />
        <lane index="2" width="3.66" />
    </edge>
    <edge id="145.0" from="node_143_end" to="junction_10" numLanes="3" speed="13.89" type="town" shape="589994.39,3268263.48 590002.50,3268266.58 590002.50,3268266.58 590017.70,3268272.43 590017.70,3268272.43 590040.13,3268281.06 590040.13,3268281.06 590050.97,3268285.27 590050.97,3268285.27 590059.65,3268288.60 590059.65,3268288.60 590067.49,3268291.57 590067.49,3268291.57 590076.92,3268295.18 590076.92,3268295.18 590088.97,3268299.71 590088.97,3268299.71 590094.28,3268301.72">
        <lane index="0" width="3.66" type="shoulder" disallow="all" />
        <lane index="1" width="3.66" />
        <lane index="2" width="3.66" />
    </edge>
    <edge id="146.0" from="junction_65" to="node_128_start" numLanes="2" speed="13.89" type="town" shape="589601.81,3268113.49 589620.42,3268120.58 589620.42,3268120.58 589643.28,3268129.35 589643.28,3268129.35 589652.87,3268133.01 589652.87,3268133.01 589666.12,3268138.02">
        <lane index="0" width="3.66" />
        <lane index="1" width="3.66" />
    </edge>