<?xml version="1.0" encoding="UTF-8"?>

<!-- generated on 2025-10-30 01:44:28 by Eclipse SUMO netedit Version 1.23.1
<neteditConfiguration xmlns:xsi="http://www.w3.org/2001/XMLSchema-instance" xsi:noNamespaceSchemaLocation="http://sumo.dlr.de/xsd/neteditConfiguration.xsd">

    <input>
        <sumo-net-file value="/home/sdai/harry/TeraSim/jupiter/eb/map.net.xml"/>
    </input>

    <output>
        <output-file value="/home/sdai/harry/TeraSim/jupiter/eb/map.net.xml"/>
        <output.street-names value="true"/>
    </output>

    <processing>
        <geometry.min-radius.fix.railways value="false"/>
        <geometry.avoid-overlap value="false"/>
        <geometry.max-grade.fix value="false"/>
        <offset.disable-normalization value="true"/>
        <lefthand value="0"/>
    </processing>

    <junctions>
        <no-turnarounds value="true"/>
        <junctions.corner-detail value="5"/>
        <junctions.internal-link-detail value="5"/>
        <junctions.limit-turn-speed value="5.50"/>
        <rectangular-lane-cut value="1"/>
        <check-lane-foes.all value="1"/>
    </junctions>

    <pedestrian>
        <walkingareas value="0"/>
    </pedestrian>

</neteditConfiguration>
-->

<net version="1.20" junctionCornerDetail="5" junctionLinkDetail="5" rectangularLaneCut="true" limitTurnSpeed="5.50" checkLaneFoesAll="1" avoidOverlap="0" xmlns:xsi="http://www.w3.org/2001/XMLSchema-instance" xsi:noNamespaceSchemaLocation="http://sumo.dlr.de/xsd/net_file.xsd">

    <location netOffset="-563887.05,-3258169.84" convBoundary="20865.41,8198.33,171764.90,29149.04" origBoundary="563887.050000,3258169.840000,805403.570000,3298400.850000" projParameter="+proj=utm +zone=14 +datum=WGS84 +units=m +no_defs"/>

    <edge id=":j_merge_end_12_0" function="internal">
        <lane id=":j_merge_end_12_0_0" index="0" speed="13.89" length="18.35" width="3.66" shape="30259.97,12659.52 30264.11,12663.11 30266.39,12666.22 30268.66,12669.33 30272.80,12672.91"/>
        <lane id=":j_merge_end_12_0_1" index="1" speed="13.89" length="18.35" width="3.66" shape="30257.87,12662.51 30272.80,12672.91"/>
        <lane id=":j_merge_end_12_0_2" index="2" speed="13.89" length="18.35" width="3.66" shape="30255.77,12665.51 30270.70,12675.91"/>
    </edge>
    <edge id=":j_merge_end_22_0" function="internal">
        <lane id=":j_merge_end_22_0_0" index="0" speed="13.89" length="2.64" width="3.66" shape="63003.55,22229.74 63001.59,22236.79"/>
        <lane id=":j_merge_end_22_0_1" index="1" speed="13.89" length="2.64" width="3.66" shape="63002.43,22233.22 63002.71,22233.31"/>
        <lane id=":j_merge_end_22_0_2" index="2" speed="13.89" length="2.64" width="3.66" shape="63001.30,22236.70 63001.59,22236.79"/>
    </edge>
    <edge id=":j_merge_end_23_0" function="internal">
        <lane id=":j_merge_end_23_0_0" index="0" speed="13.89" length="24.77" width="3.66" shape="66421.11,22655.09 66428.49,22655.17 66433.53,22656.11 66438.57,22657.03 66445.95,22657.07"/>
        <lane id=":j_merge_end_23_0_1" index="1" speed="13.89" length="24.77" width="3.66" shape="66421.36,22658.74 66445.95,22657.07"/>
        <lane id=":j_merge_end_23_0_2" index="2" speed="13.89" length="24.77" width="3.66" shape="66421.61,22662.39 66446.22,22660.72"/>
    </edge>
    <edge id=":j_merge_end_24_0" function="internal">
        <lane id=":j_merge_end_24_0_0" index="0" speed="13.89" length="22.11" width="3.66" shape="72984.63,23042.90 72990.96,23044.76 72995.04,23046.88 72999.13,23049.01 73005.45,23050.86"/>
        <lane id=":j_merge_end_24_0_1" index="1" speed="13.89" length="22.11" width="3.66" shape="72983.92,23046.49 73005.45,23050.86"/>
        <lane id=":j_merge_end_24_0_2" index="2" speed="13.89" length="22.11" width="3.66" shape="72983.21,23050.08 73004.74,23054.45"/>
    </edge>
    <edge id=":j_merge_end_25_0" function="internal">
        <lane id=":j_merge_end_25_0_0" index="0" speed="13.89" length="2.64" width="3.66" shape="81426.34,22750.06 81427.05,22757.35"/>
        <lane id=":j_merge_end_25_0_1" index="1" speed="13.89" length="2.64" width="3.66" shape="81426.54,22753.72 81426.84,22753.70"/>
        <lane id=":j_merge_end_25_0_2" index="2" speed="13.89" length="2.64" width="3.66" shape="81426.75,22757.37 81427.05,22757.35"/>
    </edge>
    <edge id=":j_merge_end_29_0" function="internal">
        <lane id=":j_merge_end_29_0_0" index="0" speed="13.89" length="17.62" width="3.66" shape="120343.81,28530.50 120349.02,28531.29 120352.45,28532.72 120355.89,28534.14 120361.09,28534.94"/>
        <lane id=":j_merge_end_29_0_1" index="1" speed="13.89" length="17.62" width="3.66" shape="120343.66,28534.15 120361.09,28534.94"/>
        <lane id=":j_merge_end_29_0_2" index="2" speed="13.89" length="17.62" width="3.66" shape="120343.51,28537.81 120360.94,28538.59"/>
    </edge>
    <edge id=":j_merge_end_31_0" function="internal">
        <lane id=":j_merge_end_31_0_0" index="0" speed="13.89" length="21.98" width="3.66" shape="139668.47,28590.27 139674.76,28592.09 139678.83,28594.16 139682.91,28596.23 139689.21,28598.04"/>
        <lane id=":j_merge_end_31_0_1" index="1" speed="13.89" length="21.98" width="3.66" shape="139667.76,28593.86 139689.21,28598.04"/>
        <lane id=":j_merge_end_31_0_2" index="2" speed="13.89" length="21.98" width="3.66" shape="139667.05,28597.45 139688.50,28601.63"/>
    </edge>
    <edge id=":j_merge_end_32_0" function="internal">
        <lane id=":j_merge_end_32_0_0" index="0" speed="13.89" length="21.14" width="3.66" shape="144602.42,28492.74 144608.41,28490.78 144612.77,28490.24 144617.14,28489.70 144623.13,28487.74"/>
        <lane id=":j_merge_end_32_0_1" index="1" speed="13.89" length="21.14" width="3.66" shape="144603.86,28496.11 144623.13,28487.74"/>
        <lane id=":j_merge_end_32_0_2" index="2" speed="13.89" length="21.14" width="3.66" shape="144605.31,28499.47 144624.57,28491.10"/>
    </edge>
    <edge id=":j_merge_end_49_0" function="internal">
        <lane id=":j_merge_end_49_0_0" index="0" speed="13.89" length="25.21" width="3.66" shape="21478.34,8458.60 21485.31,8462.28 21490.04,8465.66 21494.31,8468.83 21499.92,8471.88"/>
        <lane id=":j_merge_end_49_0_1" index="1" speed="13.89" length="25.21" width="3.66" shape="21476.86,8461.94 21499.92,8471.88"/>
        <lane id=":j_merge_end_49_0_2" index="2" speed="13.89" length="25.21" width="3.66" shape="21475.37,8465.29 21498.44,8475.23"/>
    </edge>
    <edge id=":j_merge_end_54_0" function="internal">
        <lane id=":j_merge_end_54_0_0" index="0" speed="13.89" length="24.96" width="3.66" shape="41405.69,16798.42 41412.71,16800.90 41417.23,16803.39 41421.74,16805.89 41428.74,16808.42"/>
        <lane id=":j_merge_end_54_0_1" index="1" speed="13.89" length="24.96" width="3.66" shape="41404.73,16801.95 41428.74,16808.42"/>
        <lane id=":j_merge_end_54_0_2" index="2" speed="13.89" length="24.96" width="3.66" shape="41403.77,16805.48 41427.75,16811.94"/>
    </edge>
    <edge id=":j_merge_end_55_0" function="internal">
        <lane id=":j_merge_end_55_0_0" index="0" speed="13.89" length="24.63" width="3.66" shape="54321.82,19397.17 54328.54,19400.11 54332.79,19402.92 54337.04,19405.73 54343.76,19408.66"/>
        <lane id=":j_merge_end_55_0_1" index="1" speed="13.89" length="24.63" width="3.66" shape="54320.62,19400.63 54343.76,19408.66"/>
        <lane id=":j_merge_end_55_0_2" index="2" speed="13.89" length="24.63" width="3.66" shape="54319.41,19404.08 54342.56,19412.12"/>
    </edge>
    <edge id=":j_merge_start_12_0" function="internal">
        <lane id=":j_merge_start_12_0_0" index="0" speed="13.89" length="77.05" width="3.66" shape="30114.96,12557.88 30124.69,12564.96 30143.29,12578.04 30163.48,12592.12 30177.97,12602.22"/>
    </edge>
    <edge id=":j_merge_start_12_1" function="internal">
        <lane id=":j_merge_start_12_1_0" index="0" speed="13.89" length="77.24" width="3.66" shape="30112.64,12560.88 30175.87,12605.22"/>
        <lane id=":j_merge_start_12_1_1" index="1" speed="13.89" length="77.24" width="3.66" shape="30110.53,12563.87 30173.77,12608.22"/>
    </edge>
    <edge id=":j_merge_start_22_0" function="internal">
        <lane id=":j_merge_start_22_0_0" index="0" speed="13.89" length="74.86" width="3.66" shape="62839.00,22176.59 62910.23,22199.60"/>
    </edge>
    <edge id=":j_merge_start_22_1" function="internal">
        <lane id=":j_merge_start_22_1_0" index="0" speed="13.89" length="74.82" width="3.66" shape="62837.88,22180.21 62909.11,22203.08"/>
        <lane id=":j_merge_start_22_1_1" index="1" speed="13.89" length="74.82" width="3.66" shape="62836.75,22183.69 62907.99,22206.57"/>
    </edge>
    <edge id=":j_merge_start_23_0" function="internal">
        <lane id=":j_merge_start_23_0_0" index="0" speed="13.89" length="58.76" width="3.66" shape="66232.22,22668.49 66290.83,22664.32"/>
    </edge>
    <edge id=":j_merge_start_23_1" function="internal">
        <lane id=":j_merge_start_23_1_0" index="0" speed="13.89" length="58.73" width="3.66" shape="66232.53,22672.20 66291.10,22667.97"/>
        <lane id=":j_merge_start_23_1_1" index="1" speed="13.89" length="58.73" width="3.66" shape="66232.79,22675.85 66291.37,22671.62"/>
    </edge>
    <edge id=":j_merge_start_24_0" function="internal">
        <lane id=":j_merge_start_24_0_0" index="0" speed="13.89" length="55.19" width="3.66" shape="72836.53,23013.27 72844.93,23015.18 72859.86,23018.19 72876.64,23021.47 72890.62,23024.22"/>
    </edge>
    <edge id=":j_merge_start_24_1" function="internal">
        <lane id=":j_merge_start_24_1_0" index="0" speed="13.89" length="55.37" width="3.66" shape="72835.61,23016.96 72889.91,23027.81"/>
        <lane id=":j_merge_start_24_1_1" index="1" speed="13.89" length="55.37" width="3.66" shape="72834.91,23020.55 72889.20,23031.40"/>
    </edge>
    <edge id=":j_merge_start_25_0" function="internal">
        <lane id=":j_merge_start_25_0_0" index="0" speed="13.89" length="89.80" width="3.66" shape="81156.50,22765.06 81170.51,22764.52 81197.59,22763.02 81226.54,22761.31 81246.16,22760.14"/>
    </edge>
    <edge id=":j_merge_start_25_1" function="internal">
        <lane id=":j_merge_start_25_1_0" index="0" speed="13.89" length="89.79" width="3.66" shape="81156.72,22768.89 81246.37,22763.80"/>
        <lane id=":j_merge_start_25_1_1" index="1" speed="13.89" length="89.79" width="3.66" shape="81156.92,22772.54 81246.58,22767.45"/>
    </edge>
    <edge id=":j_merge_start_29_0" function="internal">
        <lane id=":j_merge_start_29_0_0" index="0" speed="13.89" length="65.15" width="3.66" shape="120200.95,28524.84 120266.05,28527.38"/>
    </edge>
    <edge id=":j_merge_start_29_1" function="internal">
        <lane id=":j_merge_start_29_1_0" index="0" speed="13.89" length="65.13" width="3.66" shape="120200.83,28528.59 120265.91,28531.03"/>
        <lane id=":j_merge_start_29_1_1" index="1" speed="13.89" length="65.13" width="3.66" shape="120200.67,28532.24 120265.76,28534.69"/>
    </edge>
    <edge id=":j_merge_start_31_0" function="internal">
        <lane id=":j_merge_start_31_0_0" index="0" speed="13.89" length="69.84" width="3.66" shape="139524.85,28561.83 139593.35,28575.44"/>
    </edge>
    <edge id=":j_merge_start_31_1" function="internal">
        <lane id=":j_merge_start_31_1_0" index="0" speed="13.89" length="69.75" width="3.66" shape="139524.22,28565.51 139592.64,28579.03"/>
        <lane id=":j_merge_start_31_1_1" index="1" speed="13.89" length="69.75" width="3.66" shape="139523.52,28569.10 139591.94,28582.62"/>
    </edge>
    <edge id=":j_merge_start_32_0" function="internal">
        <lane id=":j_merge_start_32_0_0" index="0" speed="13.89" length="55.09" width="3.66" shape="144493.69,28539.50 144544.30,28517.75"/>
    </edge>
    <edge id=":j_merge_start_32_1" function="internal">
        <lane id=":j_merge_start_32_1_0" index="0" speed="13.89" length="54.99" width="3.66" shape="144495.24,28542.85 144545.75,28521.11"/>
        <lane id=":j_merge_start_32_1_1" index="1" speed="13.89" length="54.99" width="3.66" shape="144496.69,28546.21 144547.20,28524.47"/>
    </edge>
    <edge id=":j_merge_start_49_0" function="internal">
        <lane id=":j_merge_start_49_0_0" index="0" speed="13.89" length="63.85" width="3.66" shape="21374.04,8412.54 21432.45,8438.34"/>
    </edge>
    <edge id=":j_merge_start_49_1" function="internal">
        <lane id=":j_merge_start_49_1_0" index="0" speed="13.89" length="63.75" width="3.66" shape="21372.68,8415.87 21430.97,8441.69"/>
        <lane id=":j_merge_start_49_1_1" index="1" speed="13.89" length="63.75" width="3.66" shape="21371.21,8419.22 21429.50,8445.04"/>
    </edge>
    <edge id=":j_merge_start_54_0" function="internal">
        <lane id=":j_merge_start_54_0_0" index="0" speed="13.89" length="50.12" width="3.66" shape="41138.86,16734.37 41187.98,16744.66"/>
        <lane id=":j_merge_start_54_0_1" index="1" speed="13.89" length="50.12" width="3.66" shape="41138.16,16737.96 41187.15,16748.23"/>
    </edge>
    <edge id=":j_merge_start_54_2" function="internal">
        <lane id=":j_merge_start_54_2_0" index="0" speed="13.89" length="50.31" width="3.66" shape="41139.62,16730.51 41188.80,16741.09"/>
    </edge>
    <edge id=":j_merge_start_55_0" function="internal">
        <lane id=":j_merge_start_55_0_0" index="0" speed="13.89" length="51.26" width="3.66" shape="54110.69,19323.87 54159.09,19340.76"/>
    </edge>
    <edge id=":j_merge_start_55_1" function="internal">
        <lane id=":j_merge_start_55_1_0" index="0" speed="13.89" length="51.24" width="3.66" shape="54109.48,19327.44 54157.89,19344.22"/>
        <lane id=":j_merge_start_55_1_1" index="1" speed="13.89" length="51.24" width="3.66" shape="54108.28,19330.90 54156.70,19347.68"/>
    </edge>
    <edge id=":junction_10_0" function="internal">
        <lane id=":junction_10_0_0" index="0" speed="13.89" length="48.66" width="3.66" shape="26209.17,10126.75 26255.88,10140.72"/>
        <lane id=":junction_10_0_1" index="1" speed="13.89" length="48.66" width="3.66" shape="26209.17,10126.75 26254.58,10144.14"/>
        <lane id=":junction_10_0_2" index="2" speed="13.89" length="48.66" width="3.66" shape="26207.88,10130.17 26253.27,10147.56"/>
    </edge>
    <edge id=":junction_105_0" function="internal">
        <lane id=":junction_105_0_0" index="0" speed="13.89" length="147.30" width="3.66" shape="43891.87,17479.40 44034.86,17514.59"/>
        <lane id=":junction_105_0_1" index="1" speed="13.89" length="147.30" width="3.66" shape="43890.91,17482.93 44033.99,17518.14"/>
    </edge>
    <edge id=":junction_105_2" function="internal">
        <lane id=":junction_105_2_0" index="0" speed="13.89" length="147.56" width="3.66" shape="43890.91,17482.93 44033.26,17521.79"/>
        <lane id=":junction_105_2_1" index="1" speed="13.89" length="147.56" width="3.66" shape="43889.94,17486.46 44032.30,17525.32"/>
    </edge>
    <edge id=":junction_108_0" function="internal">
        <lane id=":junction_108_0_0" index="0" speed="13.89" length="67.19" width="3.66" shape="21884.56,8641.69 21897.59,8646.85 21917.69,8654.35 21936.98,8661.36 21947.55,8665.05"/>
    </edge>
    <edge id=":junction_108_1" function="internal">
        <lane id=":junction_108_1_0" index="0" speed="13.89" length="67.32" width="3.66" shape="21884.56,8641.69 21946.12,8668.93"/>
        <lane id=":junction_108_1_1" index="1" speed="13.89" length="67.32" width="3.66" shape="21883.07,8645.04 21944.64,8672.28"/>
    </edge>
    <edge id=":junction_11_0" function="internal">
        <lane id=":junction_11_0_0" index="0" speed="13.89" length="67.02" width="3.66" shape="24912.78,9631.38 24976.63,9651.92"/>
        <lane id=":junction_11_0_1" index="1" speed="13.89" length="67.02" width="3.66" shape="24912.78,9631.38 24975.33,9655.34"/>
        <lane id=":junction_11_0_2" index="2" speed="13.89" length="67.02" width="3.66" shape="24911.47,9634.79 24974.02,9658.76"/>
    </edge>
    <edge id=":junction_13_0" function="internal">
        <lane id=":junction_13_0_0" index="0" speed="13.89" length="26.95" width="3.66" shape="32086.88,13885.28 32107.74,13902.35"/>
    </edge>
    <edge id=":junction_13_1" function="internal">
        <lane id=":junction_13_1_0" index="0" speed="13.89" length="26.73" width="3.66" shape="32083.46,13890.70 32105.75,13905.42"/>
        <lane id=":junction_13_1_1" index="1" speed="13.89" length="26.73" width="3.66" shape="32081.44,13893.75 32103.76,13908.49"/>
    </edge>
    <edge id=":junction_14_0" function="internal">
        <lane id=":junction_14_0_0" index="0" speed="13.89" length="100.54" width="3.66" shape="36446.99,16640.27 36464.79,16640.60 36495.34,16642.09 36526.84,16643.79 36547.46,16644.77"/>
        <lane id=":junction_14_0_1" index="1" speed="13.89" length="100.54" width="3.66" shape="36446.99,16640.27 36464.77,16641.17 36495.29,16643.92 36526.75,16646.88 36547.36,16648.43"/>
        <lane id=":junction_14_0_2" index="2" speed="13.89" length="100.54" width="3.66" shape="36447.26,16643.92 36464.99,16644.82 36495.38,16647.57 36526.71,16650.54 36547.26,16652.09"/>
    </edge>
    <edge id=":junction_15_0" function="internal">
        <lane id=":junction_15_0_0" index="0" speed="13.89" length="275.90" width="3.66" shape="33493.19,14866.02 33716.52,15028.39"/>
        <lane id=":junction_15_0_1" index="1" speed="13.89" length="275.90" width="3.66" shape="33493.19,14866.02 33714.18,15031.21"/>
        <lane id=":junction_15_0_2" index="2" speed="13.89" length="275.90" width="3.66" shape="33491.04,14868.99 33711.85,15034.03"/>
    </edge>
    <edge id=":junction_16_0" function="internal">
        <lane id=":junction_16_0_0" index="0" speed="13.89" length="124.03" width="3.66" shape="35954.77,16622.73 35973.87,16625.96 36012.32,16631.88 36052.66,16637.74 36077.46,16640.81"/>
    </edge>
    <edge id=":junction_16_1" function="internal">
        <lane id=":junction_16_1_0" index="0" speed="13.89" length="124.03" width="3.66" shape="35953.66,16634.74 36077.22,16644.46"/>
        <lane id=":junction_16_1_1" index="1" speed="13.89" length="124.03" width="3.66" shape="35953.24,16638.37 36076.97,16648.11"/>
    </edge>
    <edge id=":junction_17_0" function="internal">
        <lane id=":junction_17_0_0" index="0" speed="13.89" length="100.39" width="3.66" shape="37575.91,16648.08 37595.79,16649.11 37626.03,16651.67 37656.27,16654.35 37676.15,16655.72"/>
        <lane id=":junction_17_0_1" index="1" speed="13.89" length="100.39" width="3.66" shape="37575.98,16651.74 37595.84,16652.77 37626.03,16655.33 37656.21,16658.01 37676.07,16659.38"/>
        <lane id=":junction_17_0_2" index="2" speed="13.89" length="100.39" width="3.66" shape="37576.05,16655.40 37595.89,16656.42 37626.02,16658.99 37656.16,16661.67 37675.99,16663.04"/>
    </edge>
    <edge id=":junction_18_0" function="internal">
        <lane id=":junction_18_0_0" index="0" speed="13.89" length="143.81" width="3.66" shape="45938.77,18043.42 46078.41,18077.89"/>
        <lane id=":junction_18_0_1" index="1" speed="13.89" length="143.81" width="3.66" shape="45938.77,18043.42 46077.45,18081.42"/>
        <lane id=":junction_18_0_2" index="2" speed="13.89" length="143.81" width="3.66" shape="45937.80,18046.95 46076.48,18084.95"/>
    </edge>
    <edge id=":junction_19_0" function="internal">
        <lane id=":junction_19_0_0" index="0" speed="13.89" length="195.08" width="3.66" shape="49485.05,18496.97 49680.16,18497.15"/>
        <lane id=":junction_19_0_1" index="1" speed="13.89" length="195.08" width="3.66" shape="49485.05,18496.97 49680.09,18500.81"/>
        <lane id=":junction_19_0_2" index="2" speed="13.89" length="195.08" width="3.66" shape="49484.98,18500.63 49680.01,18504.47"/>
    </edge>
    <edge id=":junction_20_0" function="internal">
        <lane id=":junction_20_0_0" index="0" speed="13.89" length="133.65" width="3.66" shape="55793.33,19910.70 55920.80,19950.95"/>
        <lane id=":junction_20_0_1" index="1" speed="13.89" length="133.65" width="3.66" shape="55793.33,19910.70 55919.61,19954.41"/>
        <lane id=":junction_20_0_2" index="2" speed="13.89" length="133.65" width="3.66" shape="55792.13,19914.16 55918.42,19957.87"/>
    </edge>
    <edge id=":junction_21_0" function="internal">
        <lane id=":junction_21_0_0" index="0" speed="13.89" length="87.33" width="3.66" shape="52368.68,18723.65 52452.37,18748.82"/>
        <lane id=":junction_21_0_1" index="1" speed="13.89" length="87.33" width="3.66" shape="52368.68,18723.65 52451.16,18752.28"/>
        <lane id=":junction_21_0_2" index="2" speed="13.89" length="87.33" width="3.66" shape="52367.49,18727.11 52449.95,18755.73"/>
    </edge>
    <edge id=":junction_26_0" function="internal">
        <lane id=":junction_26_0_0" index="0" speed="13.89" length="121.28" width="3.66" shape="90085.22,23867.45 90204.45,23889.67"/>
    </edge>
    <edge id=":junction_26_1" function="internal">
        <lane id=":junction_26_1_0" index="0" speed="13.89" length="121.34" width="3.66" shape="90084.45,23871.43 90204.45,23889.67"/>
        <lane id=":junction_26_1_1" index="1" speed="13.89" length="121.34" width="3.66" shape="90083.93,23875.06 90203.85,23893.28"/>
    </edge>
    <edge id=":junction_27_0" function="internal">
        <lane id=":junction_27_0_0" index="0" speed="13.89" length="150.20" width="3.66" shape="100722.91,25187.88 100746.11,25191.38 100793.51,25198.11 100842.80,25205.00 100871.62,25208.98"/>
    </edge>
    <edge id=":junction_27_1" function="internal">
        <lane id=":junction_27_1_0" index="0" speed="13.89" length="150.34" width="3.66" shape="100722.20,25191.98 100871.62,25208.98"/>
        <lane id=":junction_27_1_1" index="1" speed="13.89" length="150.34" width="3.66" shape="100721.80,25195.62 100871.13,25212.60"/>
    </edge>
    <edge id=":junction_28_0" function="internal">
        <lane id=":junction_28_0_0" index="0" speed="13.89" length="88.70" width="3.66" shape="105639.56,27590.56 105720.00,27627.94"/>
    </edge>
    <edge id=":junction_28_1" function="internal">
        <lane id=":junction_28_1_0" index="0" speed="13.89" length="88.58" width="3.66" shape="105638.22,27593.90 105720.00,27627.94"/>
        <lane id=":junction_28_1_1" index="1" speed="13.89" length="88.58" width="3.66" shape="105636.81,27597.28 105718.59,27631.32"/>
    </edge>
    <edge id=":junction_30_0" function="internal">
        <lane id=":junction_30_0_0" index="0" speed="13.89" length="99.94" width="3.66" shape="129668.15,28084.23 129683.74,28085.06 129714.32,28086.38 129746.78,28087.61 129768.01,28088.15"/>
    </edge>
    <edge id=":junction_30_1" function="internal">
        <lane id=":junction_30_1_0" index="0" speed="13.89" length="100.07" width="3.66" shape="129667.94,28088.29 129768.01,28088.15"/>
        <lane id=":junction_30_1_1" index="1" speed="13.89" length="100.07" width="3.66" shape="129667.94,28091.95 129768.01,28091.81"/>
    </edge>
    <edge id=":junction_33_0" function="internal">
        <lane id=":junction_33_0_0" index="0" speed="13.89" length="85.43" width="3.66" shape="151496.18,28540.19 151581.52,28545.08"/>
        <lane id=":junction_33_0_1" index="1" speed="13.89" length="85.43" width="3.66" shape="151496.18,28540.19 151581.16,28548.72"/>
        <lane id=":junction_33_0_2" index="2" speed="13.89" length="85.43" width="3.66" shape="151495.81,28543.83 151580.79,28552.36"/>
    </edge>
    <edge id=":junction_34_0" function="internal">
        <lane id=":junction_34_0_0" index="0" speed="13.89" length="140.54" width="3.66" shape="164005.61,28768.05 164145.19,28784.42"/>
    </edge>
    <edge id=":junction_34_1" function="internal">
        <lane id=":junction_34_1_0" index="0" speed="13.89" length="140.46" width="3.66" shape="164005.30,28771.75 164145.19,28784.42"/>
        <lane id=":junction_34_1_1" index="1" speed="13.89" length="140.46" width="3.66" shape="164004.97,28775.40 164144.85,28788.07"/>
    </edge>
    <edge id=":junction_35_0" function="internal">
        <lane id=":junction_35_0_0" index="0" speed="13.89" length="103.61" width="3.66" shape="169360.00,29065.06 169376.12,29066.51 169407.89,29069.09 169441.53,29071.62 169463.31,29072.94"/>
    </edge>
    <edge id=":junction_35_1" function="internal">
        <lane id=":junction_35_1_0" index="0" speed="13.89" length="103.84" width="3.66" shape="169359.40,29073.55 169463.20,29076.60"/>
        <lane id=":junction_35_1_1" index="1" speed="13.89" length="103.84" width="3.66" shape="169359.30,29077.21 169463.09,29080.26"/>
    </edge>
    <edge id=":junction_36_0" function="internal">
        <lane id=":junction_36_0_0" index="0" speed="13.89" length="119.34" width="3.66" shape="167694.52,29022.86 167813.66,29029.70"/>
    </edge>
    <edge id=":junction_36_1" function="internal">
        <lane id=":junction_36_1_0" index="0" speed="13.89" length="119.20" width="3.66" shape="167694.50,29026.62 167813.66,29029.70"/>
        <lane id=":junction_36_1_1" index="1" speed="13.89" length="119.20" width="3.66" shape="167694.40,29030.28 167813.55,29033.36"/>
    </edge>
    <edge id=":junction_37_0" function="internal">
        <lane id=":junction_37_0_0" index="0" disallow="all" speed="13.89" length="86.67" width="3.66" shape="171570.26,29118.45 171586.33,29121.41 171609.14,29125.56 171633.85,29129.35 171655.66,29131.23"/>
        <lane id=":junction_37_0_1" index="1" speed="13.89" length="86.67" width="3.66" shape="171569.66,29122.07 171585.81,29125.03 171608.80,29129.19 171633.69,29133.00 171655.58,29134.89"/>
    </edge>
    <edge id=":junction_37_2" function="internal">
        <lane id=":junction_37_2_0" index="0" speed="13.89" length="85.98" width="3.66" shape="171569.55,29136.54 171655.50,29138.55"/>
        <lane id=":junction_37_2_1" index="1" speed="13.89" length="85.98" width="3.66" shape="171569.46,29140.20 171655.42,29142.21"/>
    </edge>
    <edge id=":junction_65_0" function="internal">
        <lane id=":junction_65_0_0" index="0" speed="13.89" length="65.84" width="3.66" shape="25660.06,9916.93 25675.10,9922.11 25694.91,9928.28 25713.01,9933.69 25722.90,9936.54"/>
    </edge>
    <edge id=":junction_65_1" function="internal">
        <lane id=":junction_65_1_0" index="0" speed="13.89" length="65.91" width="3.66" shape="25660.06,9916.93 25721.64,9940.39"/>
        <lane id=":junction_65_1_1" index="1" speed="13.89" length="65.91" width="3.66" shape="25658.73,9920.34 25720.34,9943.81"/>
    </edge>
    <edge id=":junction_66_0" function="internal">
        <lane id=":junction_66_0_0" index="0" speed="13.89" length="88.77" width="3.66" shape="28542.51,11020.17 28624.98,11053.01"/>
    </edge>
    <edge id=":junction_66_1" function="internal">
        <lane id=":junction_66_1_0" index="0" speed="13.89" length="88.57" width="3.66" shape="28542.51,11020.17 28623.38,11056.57"/>
        <lane id=":junction_66_1_1" index="1" speed="13.89" length="88.57" width="3.66" shape="28541.11,11023.55 28621.77,11059.86"/>
    </edge>
    <edge id=":junction_67_0" function="internal">
        <lane id=":junction_67_0_0" index="0" speed="13.89" length="90.58" width="3.66" shape="24267.86,9413.00 24286.92,9418.27 24315.24,9425.63 24341.79,9432.35 24355.54,9435.70"/>
    </edge>
    <edge id=":junction_67_1" function="internal">
        <lane id=":junction_67_1_0" index="0" speed="13.89" length="90.68" width="3.66" shape="24267.86,9413.00 24354.54,9439.62"/>
        <lane id=":junction_67_1_1" index="1" speed="13.89" length="90.68" width="3.66" shape="24266.78,9416.49 24353.47,9443.11"/>
    </edge>
    <edge id=":junction_68_0" function="internal">
        <lane id=":junction_68_0_0" index="0" speed="13.89" length="125.25" width="3.66" shape="29505.44,11897.33 29585.47,11993.67"/>
    </edge>
    <edge id=":junction_68_1" function="internal">
        <lane id=":junction_68_1_0" index="0" speed="13.89" length="125.35" width="3.66" shape="29505.44,11897.33 29582.43,11996.26"/>
        <lane id=":junction_68_1_1" index="1" speed="13.89" length="125.35" width="3.66" shape="29502.56,11899.58 29579.54,11998.51"/>
    </edge>
    <edge id=":junction_69_0" function="internal">
        <lane id=":junction_69_0_0" index="0" speed="13.89" length="93.21" width="3.66" shape="30924.55,13130.82 30941.58,13141.66 30967.33,13157.37 30991.58,13171.95 31004.11,13179.37"/>
    </edge>
    <edge id=":junction_69_1" function="internal">
        <lane id=":junction_69_1_0" index="0" speed="13.89" length="93.26" width="3.66" shape="30924.55,13130.82 31001.99,13182.77"/>
        <lane id=":junction_69_1_1" index="1" speed="13.89" length="93.26" width="3.66" shape="30922.47,13133.83 30999.92,13185.79"/>
    </edge>
    <edge id=":junction_70_0" function="internal">
        <lane id=":junction_70_0_0" index="0" speed="13.89" length="93.78" width="3.66" shape="32736.13,14296.76 32815.77,14346.29"/>
    </edge>
    <edge id=":junction_70_1" function="internal">
        <lane id=":junction_70_1_0" index="0" speed="13.89" length="94.08" width="3.66" shape="32736.13,14296.76 32814.02,14349.61"/>
        <lane id=":junction_70_1_1" index="1" speed="13.89" length="94.08" width="3.66" shape="32734.12,14299.82 32811.93,14352.61"/>
    </edge>
    <edge id=":junction_72_0" function="internal">
        <lane id=":junction_72_0_0" index="0" speed="13.89" length="170.01" width="3.66" shape="34532.40,15684.64 34556.87,15704.50 34599.67,15739.77 34641.61,15774.60 34663.51,15793.14"/>
        <lane id=":junction_72_0_1" index="1" speed="13.89" length="170.01" width="3.66" shape="34530.17,15687.54 34554.98,15706.94 34598.55,15741.22 34641.26,15775.05 34663.51,15793.14"/>
        <lane id=":junction_72_0_2" index="2" speed="13.89" length="170.01" width="3.66" shape="34527.93,15690.43 34552.70,15709.81 34596.18,15744.00 34638.81,15777.76 34661.01,15795.81"/>
    </edge>
    <edge id=":junction_73_0" function="internal">
        <lane id=":junction_73_0_0" index="0" speed="13.89" length="69.57" width="3.66" shape="40348.21,16695.76 40362.58,16695.33 40384.83,16694.27 40406.14,16693.12 40417.69,16692.42"/>