<?xml version="1.0" encoding="UTF-8"?>

<!-- generated on 2025-10-29 02:55:15 by Eclipse SUMO netedit Version 1.23.1
<neteditConfiguration xmlns:xsi="http://www.w3.org/2001/XMLSchema-instance" xsi:noNamespaceSchemaLocation="http://sumo.dlr.de/xsd/neteditConfiguration.xsd">

    <input>
        <sumocfg-file value="/home/sdai/harry/TeraSim/jupiter/eb/simulation.sumocfg"/>
        <route-files value="/home/sdai/harry/TeraSim/jupiter/eb/vehicles.rou.xml"/>
        <sumo-net-file value="/home/sdai/harry/TeraSim/jupiter/eb/map.net.xml"/>
    </input>

    <output>
        <output-file value="/home/sdai/harry/TeraSim/jupiter/eb/map.net.xml"/>
        <output.street-names value="true"/>
    </output>

    <processing>
        <geometry.min-radius.fix.railways value="false"/>
        <geometry.avoid-overlap value="false"/>
        <geometry.max-grade.fix value="false"/>
        <offset.disable-normalization value="true"/>
        <lefthand value="0"/>
    </processing>

    <junctions>
        <no-turnarounds value="true"/>
        <junctions.corner-detail value="5"/>
        <junctions.internal-link-detail value="5"/>
        <junctions.limit-turn-speed value="5.50"/>
        <rectangular-lane-cut value="1"/>
        <check-lane-foes.all value="1"/>
    </junctions>

    <pedestrian>
        <walkingareas value="0"/>
    </pedestrian>

    <netedit>
        <ignore.routeelements value="false"/>
    </netedit>

</neteditConfiguration>
-->

<net version="1.20" junctionCornerDetail="5" junctionLinkDetail="5" rectangularLaneCut="true" limitTurnSpeed="5.50" checkLaneFoesAll="1" avoidOverlap="0" xmlns:xsi="http://www.w3.org/2001/XMLSchema-instance" xsi:noNamespaceSchemaLocation="http://sumo.dlr.de/xsd/net_file.xsd">

    <location netOffset="-563887.05,-3258169.84" convBoundary="72226.91,22707.66,229785.17,39951.43" origBoundary="563887.050000,3258169.840000,805403.570000,3298400.850000" projParameter="+proj=utm +zone=14 +datum=WGS84 +units=m +no_defs"/>

    <edge id=":j_merge_end_24_0" function="internal">
        <lane id=":j_merge_end_24_0_0" index="0" speed="13.89" length="21.97" width="3.66" shape="72983.92,23046.49 73005.45,23050.86"/>
        <lane id=":j_merge_end_24_0_1" index="1" speed="13.89" length="21.97" width="3.66" shape="72983.21,23050.08 73004.74,23054.45"/>
    </edge>
    <edge id=":j_merge_end_25_0" function="internal">
        <lane id=":j_merge_end_25_0_0" index="0" speed="13.89" length="0.30" width="3.66" shape="81426.54,22753.72 81426.84,22753.70"/>
        <lane id=":j_merge_end_25_0_1" index="1" speed="13.89" length="0.30" width="3.66" shape="81426.75,22757.37 81427.05,22757.35"/>
    </edge>
    <edge id=":j_merge_end_29_0" function="internal">
        <lane id=":j_merge_end_29_0_0" index="0" speed="13.89" length="17.62" width="3.66" shape="120343.81,28530.50 120349.02,28531.29 120352.45,28532.72 120355.89,28534.14 120361.09,28534.94"/>
        <lane id=":j_merge_end_29_0_1" index="1" speed="13.89" length="17.62" width="3.66" shape="120343.66,28534.15 120361.09,28534.94"/>
        <lane id=":j_merge_end_29_0_2" index="2" speed="13.89" length="17.62" width="3.66" shape="120343.51,28537.81 120360.94,28538.59"/>
    </edge>
    <edge id=":j_merge_end_31_0" function="internal">
        <lane id=":j_merge_end_31_0_0" index="0" speed="13.89" length="22.05" width="3.66" shape="139668.47,28590.27 139674.76,28592.09 139678.83,28594.16 139682.91,28596.23 139689.21,28598.04"/>
        <lane id=":j_merge_end_31_0_1" index="1" speed="13.89" length="22.05" width="3.66" shape="139667.05,28597.45 139688.50,28601.63"/>
    </edge>
    <edge id=":j_merge_end_32_0" function="internal">
        <lane id=":j_merge_end_32_0_0" index="0" speed="13.89" length="21.01" width="3.66" shape="144603.86,28496.11 144623.13,28487.74"/>
    </edge>
    <edge id=":j_merge_start_24_0" function="internal">
        <lane id=":j_merge_start_24_0_0" index="0" speed="13.89" length="55.19" width="3.66" shape="72836.53,23013.27 72844.93,23015.18 72859.86,23018.19 72876.64,23021.47 72890.62,23024.22"/>
    </edge>
    <edge id=":j_merge_start_24_1" function="internal">
        <lane id=":j_merge_start_24_1_0" index="0" speed="13.89" length="55.36" width="3.66" shape="72834.91,23020.55 72889.20,23031.40"/>
    </edge>
    <edge id=":j_merge_start_25_0" function="internal">
        <lane id=":j_merge_start_25_0_0" index="0" speed="13.89" length="89.80" width="3.66" shape="81156.50,22765.06 81170.51,22764.52 81197.59,22763.02 81226.54,22761.31 81246.16,22760.14"/>
    </edge>
    <edge id=":j_merge_start_25_1" function="internal">
        <lane id=":j_merge_start_25_1_0" index="0" speed="13.89" length="89.79" width="3.66" shape="81156.72,22768.89 81246.37,22763.80"/>
        <lane id=":j_merge_start_25_1_1" index="1" speed="13.89" length="89.79" width="3.66" shape="81156.92,22772.54 81246.58,22767.45"/>
    </edge>
    <edge id=":j_merge_start_29_0" function="internal">
        <lane id=":j_merge_start_29_0_0" index="0" speed="13.89" length="65.15" width="3.66" shape="120200.95,28524.84 120266.05,28527.38"/>
    </edge>
    <edge id=":j_merge_start_29_1" function="internal">
        <lane id=":j_merge_start_29_1_0" index="0" speed="13.89" length="65.13" width="3.66" shape="120200.83,28528.59 120265.91,28531.03"/>
        <lane id=":j_merge_start_29_1_1" index="1" speed="13.89" length="65.13" width="3.66" shape="120200.67,28532.24 120265.76,28534.69"/>
    </edge>
    <edge id=":j_merge_start_31_0" function="internal">
        <lane id=":j_merge_start_31_0_0" index="0" speed="13.89" length="69.84" width="3.66" shape="139524.85,28561.83 139593.35,28575.44"/>
    </edge>
    <edge id=":j_merge_start_31_1" function="internal">
        <lane id=":j_merge_start_31_1_0" index="0" speed="13.89" length="69.75" width="3.66" shape="139523.52,28569.10 139591.94,28582.62"/>
    </edge>
    <edge id=":j_merge_start_32_0" function="internal">
        <lane id=":j_merge_start_32_0_0" index="0" speed="13.89" length="55.09" width="3.66" shape="144493.69,28539.50 144544.30,28517.75"/>
    </edge>
    <edge id=":j_merge_start_32_1" function="internal">
        <lane id=":j_merge_start_32_1_0" index="0" speed="13.89" length="54.99" width="3.66" shape="144495.24,28542.85 144545.75,28521.11"/>
        <lane id=":j_merge_start_32_1_1" index="1" speed="13.89" length="54.99" width="3.66" shape="144496.69,28546.21 144547.20,28524.47"/>
    </edge>
    <edge id=":junction_26_0" function="internal">
        <lane id=":junction_26_0_0" index="0" speed="13.89" length="121.28" width="3.66" shape="90085.22,23867.45 90204.45,23889.67"/>
    </edge>
    <edge id=":junction_26_1" function="internal">
        <lane id=":junction_26_1_0" index="0" speed="13.89" length="121.34" width="3.66" shape="90084.45,23871.43 90204.45,23889.67"/>
        <lane id=":junction_26_1_1" index="1" speed="13.89" length="121.34" width="3.66" shape="90083.93,23875.06 90203.85,23893.28"/>
    </edge>
    <edge id=":junction_27_0" function="internal">
        <lane id=":junction_27_0_0" index="0" speed="13.89" length="150.20" width="3.66" shape="100722.91,25187.88 100746.11,25191.38 100793.51,25198.11 100842.80,25205.00 100871.62,25208.98"/>
    </edge>
    <edge id=":junction_28_0" function="internal">
        <lane id=":junction_28_0_0" index="0" speed="13.89" length="88.70" width="3.66" shape="105639.56,27590.56 105720.00,27627.94"/>
    </edge>
    <edge id=":junction_28_1" function="internal">
        <lane id=":junction_28_1_0" index="0" speed="13.89" length="88.58" width="3.66" shape="105638.22,27593.90 105720.00,27627.94"/>
        <lane id=":junction_28_1_1" index="1" speed="13.89" length="88.58" width="3.66" shape="105636.81,27597.28 105718.59,27631.32"/>
    </edge>
    <edge id=":junction_30_0" function="internal">
        <lane id=":junction_30_0_0" index="0" speed="13.89" length="99.94" width="3.66" shape="129668.15,28084.23 129683.74,28085.06 129714.32,28086.38 129746.78,28087.61 129768.01,28088.15"/>
    </edge>
    <edge id=":junction_30_1" function="internal">
        <lane id=":junction_30_1_0" index="0" speed="13.89" length="100.07" width="3.66" shape="129667.94,28088.29 129768.01,28088.15"/>
        <lane id=":junction_30_1_1" index="1" speed="13.89" length="100.07" width="3.66" shape="129667.94,28091.95 129768.01,28091.81"/>
    </edge>
    <edge id=":junction_33_0" function="internal">
        <lane id=":junction_33_0_0" index="0" speed="13.89" length="85.43" width="3.66" shape="151496.18,28540.19 151581.52,28545.08"/>
        <lane id=":junction_33_0_1" index="1" speed="13.89" length="85.43" width="3.66" shape="151496.18,28540.19 151581.16,28548.72"/>
        <lane id=":junction_33_0_2" index="2" speed="13.89" length="85.43" width="3.66" shape="151495.81,28543.83 151580.79,28552.36"/>
    </edge>
    <edge id=":junction_34_0" function="internal">
        <lane id=":junction_34_0_0" index="0" speed="13.89" length="140.54" width="3.66" shape="164005.61,28768.05 164145.19,28784.42"/>
    </edge>
    <edge id=":junction_34_1" function="internal">
        <lane id=":junction_34_1_0" index="0" speed="13.89" length="140.46" width="3.66" shape="164005.30,28771.75 164145.19,28784.42"/>
        <lane id=":junction_34_1_1" index="1" speed="13.89" length="140.46" width="3.66" shape="164004.97,28775.40 164144.85,28788.07"/>
    </edge>
    <edge id=":junction_35_0" function="internal">
        <lane id=":junction_35_0_0" index="0" speed="13.89" length="103.61" width="3.66" shape="169360.00,29065.06 169376.12,29066.51 169407.89,29069.09 169441.53,29071.62 169463.31,29072.94"/>
    </edge>
    <edge id=":junction_35_1" function="internal">
        <lane id=":junction_35_1_0" index="0" speed="13.89" length="103.84" width="3.66" shape="169359.40,29073.55 169463.20,29076.60"/>
        <lane id=":junction_35_1_1" index="1" speed="13.89" length="103.84" width="3.66" shape="169359.30,29077.21 169463.09,29080.26"/>
    </edge>
    <edge id=":junction_36_0" function="internal">
        <lane id=":junction_36_0_0" index="0" speed="13.89" length="119.20" width="3.66" shape="167694.50,29026.62 167813.66,29029.70"/>
    </edge>
    <edge id=":junction_37_0" function="internal">
        <lane id=":junction_37_0_0" index="0" disallow="all" speed="13.89" length="86.67" width="3.66" shape="171570.26,29118.45 171586.33,29121.41 171609.14,29125.56 171633.85,29129.35 171655.66,29131.23"/>
        <lane id=":junction_37_0_1" index="1" speed="13.89" length="86.67" width="3.66" shape="171569.66,29122.07 171585.81,29125.03 171608.80,29129.19 171633.69,29133.00 171655.58,29134.89"/>
    </edge>
    <edge id=":junction_37_2" function="internal">
        <lane id=":junction_37_2_0" index="0" speed="13.89" length="85.98" width="3.66" shape="171569.55,29136.54 171655.50,29138.55"/>
        <lane id=":junction_37_2_1" index="1" speed="13.89" length="85.98" width="3.66" shape="171569.46,29140.20 171655.42,29142.21"/>
    </edge>
    <edge id=":junction_81_0" function="internal">
        <lane id=":junction_81_0_0" index="0" speed="13.89" length="73.66" width="3.66" shape="80189.01,22823.49 80206.07,22821.95 80229.37,22819.36 80250.79,22816.79 80262.21,22815.33"/>
    </edge>
    <edge id=":junction_81_1" function="internal">
        <lane id=":junction_81_1_0" index="0" speed="13.89" length="73.73" width="3.66" shape="80189.22,22827.14 80262.82,22822.98"/>
    </edge>
    <edge id=":junction_82_0" function="internal">
        <lane id=":junction_82_0_0" index="0" speed="13.89" length="87.15" width="3.66" shape="88939.88,23716.02 88959.01,23718.06 88986.98,23720.61 89013.10,23722.81 89026.68,23723.83"/>
    </edge>
    <edge id=":junction_82_1" function="internal">
        <lane id=":junction_82_1_0" index="0" speed="13.89" length="87.25" width="3.66" shape="88939.88,23716.02 89026.33,23727.77"/>
        <lane id=":junction_82_1_1" index="1" speed="13.89" length="87.25" width="3.66" shape="88939.39,23719.65 89025.83,23731.40"/>
    </edge>
    <edge id=":junction_83_0" function="internal">
        <lane id=":junction_83_0_0" index="0" speed="13.89" length="65.99" width="3.66" shape="99731.13,25083.07 99797.04,25086.37"/>
    </edge>
    <edge id=":junction_83_1" function="internal">
        <lane id=":junction_83_1_0" index="0" speed="13.89" length="66.03" width="3.66" shape="99731.13,25083.07 99796.75,25090.31"/>
        <lane id=":junction_83_1_1" index="1" speed="13.89" length="66.03" width="3.66" shape="99730.73,25086.71 99796.36,25093.95"/>
    </edge>
    <edge id=":junction_84_0" function="internal">
        <lane id=":junction_84_0_0" index="0" speed="13.89" length="78.79" width="3.66" shape="104665.98,27188.69 104682.73,27195.08 104706.45,27203.62 104728.47,27211.35 104740.12,27215.33"/>
    </edge>
    <edge id=":junction_84_1" function="internal">
        <lane id=":junction_84_1_0" index="0" speed="13.89" length="78.87" width="3.66" shape="104665.98,27188.69 104738.74,27219.12"/>
        <lane id=":junction_84_1_1" index="1" speed="13.89" length="78.87" width="3.66" shape="104664.57,27192.06 104737.32,27222.50"/>
    </edge>
    <edge id=":junction_85_0" function="internal">
        <lane id=":junction_85_0_0" index="0" speed="13.89" length="104.48" width="3.66" shape="111894.26,27850.25 111998.74,27850.73"/>
        <lane id=":junction_85_0_1" index="1" speed="13.89" length="104.48" width="3.66" shape="111894.24,27853.91 111998.72,27854.39"/>
    </edge>
    <edge id=":junction_86_0" function="internal">
        <lane id=":junction_86_0_0" index="0" speed="13.89" length="61.04" width="3.66" shape="118678.31,28465.72 118739.34,28464.50"/>
    </edge>
    <edge id=":junction_86_1" function="internal">
        <lane id=":junction_86_1_0" index="0" speed="13.89" length="61.68" width="3.66" shape="118678.31,28465.72 118739.93,28468.26"/>
        <lane id=":junction_86_1_1" index="1" speed="13.89" length="61.68" width="3.66" shape="118678.14,28469.37 118739.79,28471.92"/>
    </edge>
    <edge id=":junction_87_0" function="internal">
        <lane id=":junction_87_0_0" index="0" speed="13.89" length="95.53" width="3.66" shape="128899.64,28092.32 128994.90,28085.18"/>
    </edge>
    <edge id=":junction_87_1" function="internal">
        <lane id=":junction_87_1_0" index="0" speed="13.89" length="95.41" width="3.66" shape="128899.64,28092.32 128995.10,28089.12"/>
        <lane id=":junction_87_1_1" index="1" speed="13.89" length="95.41" width="3.66" shape="128899.87,28095.97 128995.14,28092.78"/>
    </edge>
    <edge id=":junction_88_0" function="internal">
        <lane id=":junction_88_0_0" index="0" speed="13.89" length="89.30" width="3.66" shape="138544.86,28373.22 138632.48,28390.43"/>
        <lane id=":junction_88_0_1" index="1" speed="13.89" length="89.30" width="3.66" shape="138544.15,28376.81 138631.77,28394.02"/>
    </edge>
    <edge id=":junction_89_0" function="internal">
        <lane id=":junction_89_0_0" index="0" speed="13.89" length="82.53" width="3.66" shape="143813.59,28831.00 143830.85,28824.29 143855.25,28813.96 143877.79,28804.03 143889.44,28798.52"/>
    </edge>
    <edge id=":junction_89_1" function="internal">
        <lane id=":junction_89_1_0" index="0" speed="13.89" length="82.97" width="3.66" shape="143813.59,28831.00 143891.33,28802.40"/>
        <lane id=":junction_89_1_1" index="1" speed="13.89" length="82.97" width="3.66" shape="143814.75,28834.47 143892.73,28805.78"/>
    </edge>
    <edge id=":junction_90_0" function="internal">
        <lane id=":junction_90_0_0" index="0" speed="13.89" length="73.82" width="3.66" shape="163271.57,28704.92 163288.69,28705.92 163312.18,28706.79 163333.80,28707.40 163345.34,28707.63"/>
    </edge>
    <edge id=":junction_90_1" function="internal">
        <lane id=":junction_90_1_0" index="0" speed="13.89" length="73.89" width="3.66" shape="163271.57,28704.92 163345.15,28711.65"/>
        <lane id=":junction_90_1_1" index="1" speed="13.89" length="73.89" width="3.66" shape="163271.24,28708.57 163344.81,28715.30"/>
    </edge>
    <edge id=":junction_91_0" function="internal">
        <lane id=":junction_91_0_0" index="0" speed="13.89" length="65.02" width="3.66" shape="150888.16,28478.60 150903.91,28479.61 150924.37,28480.38 150942.96,28480.88 150953.12,28481.06"/>
    </edge>
    <edge id=":junction_91_1" function="internal">
        <lane id=":junction_91_1_0" index="0" speed="13.89" length="65.09" width="3.66" shape="150888.16,28478.60 150952.92,28485.09"/>
        <lane id=":junction_91_1_1" index="1" speed="13.89" length="65.09" width="3.66" shape="150887.80,28482.24 150952.57,28488.74"/>
    </edge>
    <edge id=":junction_92_0" function="internal">
        <lane id=":junction_92_0_0" index="0" speed="13.89" length="77.01" width="3.66" shape="166998.69,29006.85 167075.68,29005.19"/>
    </edge>
    <edge id=":junction_92_1" function="internal">
        <lane id=":junction_92_1_0" index="0" speed="13.89" length="76.98" width="3.66" shape="166998.69,29006.85 167075.63,29009.17"/>
        <lane id=":junction_92_1_1" index="1" speed="13.89" length="76.98" width="3.66" shape="166998.58,29010.51 167075.53,29012.83"/>
    </edge>
    <edge id=":junction_93_0" function="internal">
        <lane id=":junction_93_0_0" index="0" disallow="all" speed="13.89" length="77.45" width="3.66" shape="173785.44,28977.20 173862.74,28975.18"/>
        <lane id=":junction_93_0_1" index="1" speed="13.89" length="77.45" width="3.66" shape="173785.41,28980.86 173862.95,28978.83"/>
    </edge>
    <edge id=":junction_93_2" function="internal">
        <lane id=":junction_93_2_0" index="0" speed="13.89" length="77.81" width="3.66" shape="173785.39,28984.52 173863.23,28988.90"/>
        <lane id=":junction_93_2_1" index="1" speed="13.89" length="77.81" width="3.66" shape="173785.36,28988.18 173862.89,28992.55"/>
    </edge>
    <edge id=":junction_94_0" function="internal">
        <lane id=":junction_94_0_0" index="0" speed="13.89" length="81.01" width="3.66" shape="168721.29,29055.65 168802.28,29054.22"/>
    </edge>
    <edge id=":junction_94_1" function="internal">
        <lane id=":junction_94_1_0" index="0" speed="13.89" length="81.39" width="3.66" shape="168721.29,29055.65 168802.65,29057.91"/>
        <lane id=":junction_94_1_1" index="1" speed="13.89" length="81.39" width="3.66" shape="168721.18,29059.31 168802.54,29061.57"/>
    </edge>
    <edge id=":node_343_end_0" function="internal">
        <lane id=":node_343_end_0_0" index="0" speed="13.89" length="0.30" width="3.66" shape="72414.28,22932.79 72414.57,22932.85"/>
        <lane id=":node_343_end_0_1" index="1" speed="13.89" length="0.30" width="3.66" shape="72413.58,22936.38 72413.88,22936.44"/>
    </edge>
    <edge id=":node_343_start_0" function="internal">
        <lane id=":node_343_start_0_0" index="0" speed="13.89" length="0.30" width="3.66" shape="72400.55,22930.11 72400.84,22930.17"/>
        <lane id=":node_343_start_0_1" index="1" speed="13.89" length="0.30" width="3.66" shape="72399.84,22933.70 72400.14,22933.76"/>
    </edge>
    <edge id=":node_345_end_0" function="internal">
        <lane id=":node_345_end_0_0" index="0" speed="13.89" length="0.30" width="3.66" shape="72292.94,22908.76 72293.22,22908.81"/>
        <lane id=":node_345_end_0_1" index="1" speed="13.89" length="0.30" width="3.66" shape="72292.22,22912.34 72292.53,22912.40"/>
    </edge>
    <edge id=":node_346_start_0" function="internal">
        <lane id=":node_346_start_0_0" index="0" speed="13.89" length="3.00" width="3.66" shape="72767.74,23003.39 72770.69,23003.98"/>
    </edge>
    <edge id=":node_348_end_0" function="internal">
        <lane id=":node_348_end_0_0" index="0" speed="13.89" length="0.30" width="3.66" shape="76799.15,23015.77 76799.44,23015.75"/>
        <lane id=":node_348_end_0_1" index="1" speed="13.89" length="0.30" width="3.66" shape="76799.35,23019.42 76799.65,23019.40"/>
    </edge>
    <edge id=":node_362_end_0" function="internal">
        <lane id=":node_362_end_0_0" index="0" speed="13.89" length="0.30" width="3.66" shape="78268.07,22932.38 78268.37,22932.36"/>
        <lane id=":node_362_end_0_1" index="1" speed="13.89" length="0.30" width="3.66" shape="78268.28,22936.03 78268.58,22936.01"/>
    </edge>
    <edge id=":node_362_start_0" function="internal">
        <lane id=":node_362_start_0_0" index="0" speed="13.89" length="0.10" width="3.66" shape="78203.67,22939.65 78203.67,22939.65"/>
    </edge>
    <edge id=":node_363_end_0" function="internal">
        <lane id=":node_363_end_0_0" index="0" speed="13.89" length="3.00" width="3.66" shape="80340.32,22814.78 80343.33,22814.61"/>
        <lane id=":node_363_end_0_1" index="1" speed="13.89" length="3.00" width="3.66" shape="80340.54,22818.43 80343.53,22818.26"/>
    </edge>
    <edge id=":node_365_end_0" function="internal">
        <lane id=":node_365_end_0_0" index="0" speed="13.89" length="0.30" width="3.66" shape="78150.30,22939.03 78150.59,22939.01"/>
    </edge>
    <edge id=":node_365_start_0" function="internal">
        <lane id=":node_365_start_0_0" index="0" speed="13.89" length="0.30" width="3.66" shape="76906.65,23013.36 76906.95,23013.34"/>
    </edge>
    <edge id=":node_366_end_0" function="internal">
        <lane id=":node_366_end_0_0" index="0" speed="13.89" length="0.30" width="3.66" shape="76851.53,23012.84 76851.83,23012.82"/>
        <lane id=":node_366_end_0_1" index="1" speed="13.89" length="0.30" width="3.66" shape="76851.74,23016.49 76852.04,23016.47"/>
    </edge>
    <edge id=":node_368_end_0" function="internal">
        <lane id=":node_368_end_0_0" index="0" speed="13.89" length="3.00" width="3.66" shape="81093.50,22772.52 81096.49,22772.35"/>
        <lane id=":node_368_end_0_1" index="1" speed="13.89" length="3.00" width="3.66" shape="81093.71,22776.18 81096.71,22776.01"/>
    </edge>
    <edge id=":node_368_start_0" function="internal">
        <lane id=":node_368_start_0_0" index="0" speed="13.89" length="0.30" width="3.66" shape="80892.14,22787.52 80892.44,22787.50"/>
    </edge>
    <edge id=":node_371_end_0" function="internal">
        <lane id=":node_371_end_0_0" index="0" speed="13.89" length="0.30" width="3.66" shape="81095.08,22761.52 81095.37,22761.55"/>
    </edge>
    <edge id=":node_373_end_0" function="internal">
        <lane id=":node_373_end_0_0" index="0" speed="13.89" length="0.30" width="3.66" shape="82761.47,22742.98 82761.77,22743.03"/>
    </edge>
    <edge id=":node_375_start_0" function="internal">
        <lane id=":node_375_start_0_0" index="0" speed="13.89" length="0.30" width="3.66" shape="80834.57,22790.71 80834.87,22790.69"/>
    </edge>
    <edge id=":node_379_start_0" function="internal">
        <lane id=":node_379_start_0_0" index="0" speed="13.89" length="0.30" width="3.66" shape="80340.56,22803.45 80340.86,22803.41"/>
    </edge>
    <edge id=":node_383_end_0" function="internal">
        <lane id=":node_383_end_0_0" index="0" speed="13.89" length="0.30" width="3.66" shape="82814.98,22748.71 82815.28,22748.76"/>
        <lane id=":node_383_end_0_1" index="1" speed="13.89" length="0.30" width="3.66" shape="82814.35,22752.31 82814.65,22752.36"/>
    </edge>
    <edge id=":node_384_end_0" function="internal">
        <lane id=":node_384_end_0_0" index="0" speed="13.89" length="0.10" width="3.66" shape="82865.30,22757.57 82865.30,22757.57"/>
        <lane id=":node_384_end_0_1" index="1" speed="13.89" length="0.10" width="3.66" shape="82864.67,22761.18 82864.67,22761.18"/>
    </edge>
    <edge id=":node_386_end_0" function="internal">
        <lane id=":node_386_end_0_0" index="0" speed="13.89" length="0.30" width="3.66" shape="89464.06,23787.30 89464.35,23787.34"/>
    </edge>
    <edge id=":node_386_start_0" function="internal">
        <lane id=":node_386_start_0_0" index="0" speed="13.89" length="3.00" width="3.66" shape="89410.35,23783.70 89413.32,23784.11"/>
    </edge>
    <edge id=":node_387_start_0" function="internal">
        <lane id=":node_387_start_0_0" index="0" speed="13.89" length="0.29" width="3.66" shape="92630.03,24308.35 92630.32,24308.38"/>
    </edge>
    <edge id=":node_388_end_0" function="internal">
        <lane id=":node_388_end_0_0" index="0" speed="13.89" length="0.16" width="3.66" shape="89096.76,23726.25 89096.81,23726.25 89096.84,23726.25 89096.88,23726.25 89096.92,23726.24"/>
    </edge>
    <edge id=":node_389_start_0" function="internal">
        <lane id=":node_389_start_0_0" index="0" speed="13.89" length="3.00" width="3.66" shape="90012.05,23861.44 90015.03,23861.84"/>
        <lane id=":node_389_start_0_1" index="1" speed="13.89" length="3.00" width="3.66" shape="90011.56,23865.06 90014.53,23865.47"/>
    </edge>
    <edge id=":node_390_start_0" function="internal">
        <lane id=":node_390_start_0_0" index="0" speed="13.89" length="0.30" width="3.66" shape="89095.74,23737.25 89096.04,23737.29"/>
        <lane id=":node_390_start_0_1" index="1" speed="13.89" length="0.30" width="3.66" shape="89095.25,23740.88 89095.55,23740.92"/>
    </edge>
    <edge id=":node_393_end_0" function="internal">
        <lane id=":node_393_end_0_0" index="0" speed="13.89" length="0.30" width="3.66" shape="92819.73,24325.41 92820.02,24325.44"/>
        <lane id=":node_393_end_0_1" index="1" speed="13.89" length="0.30" width="3.66" shape="92819.33,24329.04 92819.63,24329.08"/>
    </edge>
    <edge id=":node_395_start_0" function="internal">
        <lane id=":node_395_start_0_0" index="0" speed="13.89" length="0.10" width="3.66" shape="92976.88,24346.28 92976.88,24346.28"/>
    </edge>
    <edge id=":node_405_end_0" function="internal">
        <lane id=":node_405_end_0_0" index="0" speed="13.89" length="0.30" width="3.66" shape="102779.71,26196.73 102779.97,26196.89"/>
        <lane id=":node_405_end_0_1" index="1" speed="13.89" length="0.30" width="3.66" shape="102777.90,26199.92 102778.15,26200.06"/>
    </edge>
    <edge id=":node_407_end_0" function="internal">
        <lane id=":node_407_end_0_0" index="0" speed="13.89" length="3.00" width="3.66" shape="99888.30,25100.30 99891.28,25100.62"/>
    </edge>
    <edge id=":node_414_end_0" function="internal">
        <lane id=":node_414_end_0_0" index="0" speed="13.89" length="0.30" width="3.66" shape="105060.84,27357.32 105061.12,27357.44"/>
    </edge>
    <edge id=":node_414_start_0" function="internal">
        <lane id=":node_414_start_0_0" index="0" speed="13.89" length="3.00" width="3.66" shape="104816.24,27251.46 104819.01,27252.61"/>
        <lane id=":node_414_start_0_1" index="1" speed="13.89" length="3.00" width="3.66" shape="104814.84,27254.85 104817.61,27255.99"/>
    </edge>
    <edge id=":node_416_start_0" function="internal">
        <lane id=":node_416_start_0_0" index="0" speed="13.89" length="3.00" width="3.66" shape="105491.60,27532.85 105494.37,27534.01"/>
        <lane id=":node_416_start_0_1" index="1" speed="13.89" length="3.00" width="3.66" shape="105490.20,27536.24 105492.97,27537.39"/>
    </edge>
    <edge id=":node_417_end_0" function="internal">
        <lane id=":node_417_end_0_0" index="0" speed="13.89" length="0.30" width="3.66" shape="106739.36,27825.91 106739.67,27825.91"/>
        <lane id=":node_417_end_0_1" index="1" speed="13.89" length="0.30" width="3.66" shape="106739.36,27829.57 106739.64,27829.57"/>
    </edge>
    <edge id=":node_419_end_0" function="internal">
        <lane id=":node_419_end_0_0" index="0" speed="13.89" length="0.30" width="3.66" shape="107073.32,27827.65 107073.62,27827.65"/>
        <lane id=":node_419_end_0_1" index="1" speed="13.89" length="0.30" width="3.66" shape="107073.31,27831.31 107073.62,27831.31"/>
    </edge>
    <edge id=":node_419_start_0" function="internal">
        <lane id=":node_419_start_0_0" index="0" speed="13.89" length="0.30" width="3.66" shape="106801.49,27826.33 106801.79,27826.33"/>
        <lane id=":node_419_start_0_1" index="1" speed="13.89" length="0.30" width="3.66" shape="106801.47,27829.99 106801.77,27829.99"/>
    </edge>
    <edge id=":node_420_end_0" function="internal">
        <lane id=":node_420_end_0_0" index="0" speed="13.89" length="0.30" width="3.66" shape="103636.77,26686.52 103637.03,26686.66"/>
    </edge>
    <edge id=":node_420_start_0" function="internal">
        <lane id=":node_420_start_0_0" index="0" speed="13.89" length="0.30" width="3.66" shape="103591.10,26660.53 103591.36,26660.67"/>
        <lane id=":node_420_start_0_1" index="1" speed="13.89" length="0.30" width="3.66" shape="103589.28,26663.71 103589.55,26663.85"/>
    </edge>
    <edge id=":node_421_end_0" function="internal">
        <lane id=":node_421_end_0_0" index="0" speed="13.89" length="0.30" width="3.66" shape="105242.54,27429.31 105242.82,27429.43"/>
        <lane id=":node_421_end_0_1" index="1" speed="13.89" length="0.30" width="3.66" shape="105241.14,27432.69 105241.41,27432.81"/>
    </edge>
    <edge id=":node_421_start_0" function="internal">
        <lane id=":node_421_start_0_0" index="0" speed="13.89" length="0.30" width="3.66" shape="105112.09,27374.88 105112.36,27374.99"/>
        <lane id=":node_421_start_0_1" index="1" speed="13.89" length="0.30" width="3.66" shape="105110.67,27378.25 105110.95,27378.37"/>
    </edge>
    <edge id=":node_422_end_0" function="internal">
        <lane id=":node_422_end_0_0" index="0" speed="13.89" length="0.10" width="3.66" shape="109837.71,27840.23 109837.71,27840.23"/>
        <lane id=":node_422_end_0_1" index="1" speed="13.89" length="0.10" width="3.66" shape="109837.69,27843.89 109837.69,27843.89"/>
    </edge>
    <edge id=":node_422_start_0" function="internal">
        <lane id=":node_422_start_0_0" index="0" speed="13.89" length="0.30" width="3.66" shape="107298.30,27828.33 107298.61,27828.33"/>
        <lane id=":node_422_start_0_1" index="1" speed="13.89" length="0.30" width="3.66" shape="107298.29,27831.99 107298.59,27831.99"/>
    </edge>
    <edge id=":node_423_end_0" function="internal">