<?xml version='1.0' encoding='utf-8'?>
<connections>
    <connection from="809.0" to="3.0" fromLane="2" toLane="3" via="785421.70,3296976.98 785422.00,3296976.94 785422.30,3296976.91 785422.60,3296976.87 785422.90,3296976.84 785423.19,3296976.81 785423.49,3296976.77 785423.79,3296976.74 785424.09,3296976.70 785424.39,3296976.67 785424.68,3296976.63 785424.98,3296976.60 785425.28,3296976.57 785425.58,3296976.53 785425.88,3296976.50 785426.18,3296976.46 785426.47,3296976.43 785426.77,3296976.39 785427.07,3296976.36 785427.37,3296976.32 785427.67,3296976.29 785427.96,3296976.26 785428.26,3296976.22 785428.56,3296976.19 785428.86,3296976.15 785429.16,3296976.12 785429.45,3296976.08 785429.75,3296976.05 785430.05,3296976.01 785430.35,3296975.97 785430.64,3296975.93 785430.94,3296975.89 785431.24,3296975.85 785431.54,3296975.81 785431.83,3296975.77 785432.13,3296975.73 785432.43,3296975.69 785432.72,3296975.65 785433.02,3296975.61 785433.32,3296975.57 785433.62,3296975.53 785433.91,3296975.49 785434.21,3296975.45 785434.51,3296975.41 785434.81,3296975.37 785435.10,3296975.32 785435.40,3296975.28 785435.70,3296975.24 785435.99,3296975.20 785436.29,3296975.16 785436.59,3296975.12 785436.89,3296975.08 785437.18,3296975.04 785437.25,3296975.03" />
    <connection from="809.0" to="3.0" fromLane="3" toLane="4" via="785421.70,3296976.98 785422.00,3296976.94 785422.30,3296976.91 785422.60,3296976.87 785422.90,3296976.84 785423.19,3296976.81 785423.49,3296976.77 785423.79,3296976.74 785424.09,3296976.70 785424.39,3296976.67 785424.68,3296976.63 785424.98,3296976.60 785425.28,3296976.57 785425.58,3296976.53 785425.88,3296976.50 785426.18,3296976.46 785426.47,3296976.43 785426.77,3296976.39 785427.07,3296976.36 785427.37,3296976.32 785427.67,3296976.29 785427.96,3296976.26 785428.26,3296976.22 785428.56,3296976.19 785428.86,3296976.15 785429.16,3296976.12 785429.45,3296976.08 785429.75,3296976.05 785430.05,3296976.01 785430.35,3296975.97 785430.64,3296975.93 785430.94,3296975.89 785431.24,3296975.85 785431.54,3296975.81 785431.83,3296975.77 785432.13,3296975.73 785432.43,3296975.69 785432.72,3296975.65 785433.02,3296975.61 785433.32,3296975.57 785433.62,3296975.53 785433.91,3296975.49 785434.21,3296975.45 785434.51,3296975.41 785434.81,3296975.37 785435.10,3296975.32 785435.40,3296975.28 785435.70,3296975.24 785435.99,3296975.20 785436.29,3296975.16 785436.59,3296975.12 785436.89,3296975.08 785437.18,3296975.04 785437.25,3296975.03" />
    <connection from="809.0" to="3.0" fromLane="0" toLane="1" via="785421.70,3296976.98 785422.00,3296976.94 785422.30,3296976.91 785422.60,3296976.87 785422.90,3296976.84 785423.19,3296976.81 785423.49,3296976.77 785423.79,3296976.74 785424.09,3296976.70 785424.39,3296976.67 785424.68,3296976.63 785424.98,3296976.60 785425.28,3296976.57 785425.58,3296976.53 785425.88,3296976.50 785426.18,3296976.46 785426.47,3296976.43 785426.77,3296976.39 785427.07,3296976.36 785427.37,3296976.32 785427.67,3296976.29 785427.96,3296976.26 785428.26,3296976.22 785428.56,3296976.19 785428.86,3296976.15 785429.16,3296976.12 785429.45,3296976.08 785429.75,3296976.05 785430.05,3296976.01 785430.35,3296975.97 785430.64,3296975.93 785430.94,3296975.89 785431.24,3296975.85 785431.54,3296975.81 785431.83,3296975.77 785432.13,3296975.73 785432.43,3296975.69 785432.72,3296975.65 785433.02,3296975.61 785433.32,3296975.57 785433.62,3296975.53 785433.91,3296975.49 785434.21,3296975.45 785434.51,3296975.41 785434.81,3296975.37 785435.10,3296975.32 785435.40,3296975.28 785435.70,3296975.24 785435.99,3296975.20 785436.29,3296975.16 785436.59,3296975.12 785436.89,3296975.08 785437.18,3296975.04 785437.25,3296975.03" />
    <connection from="809.0" to="3.0" fromLane="1" toLane="2" via="785421.70,3296976.98 785422.00,3296976.94 785422.30,3296976.91 785422.60,3296976.87 785422.90,3296976.84 785423.19,3296976.81 785423.49,3296976.77 785423.79,3296976.74 785424.09,3296976.70 785424.39,3296976.67 785424.68,3296976.63 785424.98,3296976.60 785425.28,3296976.57 785425.58,3296976.53 785425.88,3296976.50 785426.18,3296976.46 785426.47,3296976.43 785426.77,3296976.39 785427.07,3296976.36 785427.37,3296976.32 785427.67,3296976.29 785427.96,3296976.26 785428.26,3296976.22 785428.56,3296976.19 785428.86,3296976.15 785429.16,3296976.12 785429.45,3296976.08 785429.75,3296976.05 785430.05,3296976.01 785430.35,3296975.97 785430.64,3296975.93 785430.94,3296975.89 785431.24,3296975.85 785431.54,3296975.81 785431.83,3296975.77 785432.13,3296975.73 785432.43,3296975.69 785432.72,3296975.65 785433.02,3296975.61 785433.32,3296975.57 785433.62,3296975.53 785433.91,3296975.49 785434.21,3296975.45 785434.51,3296975.41 785434.81,3296975.37 785435.10,3296975.32 785435.40,3296975.28 785435.70,3296975.24 785435.99,3296975.20 785436.29,3296975.16 785436.59,3296975.12 785436.89,3296975.08 785437.18,3296975.04 785437.25,3296975.03" />
    <connection from="145.0" to="131.0" fromLane="2" toLane="2" via="590094.28,3268301.72 590094.56,3268301.83 590094.84,3268301.94 590095.12,3268302.04 590095.40,3268302.15 590095.68,3268302.26 590095.96,3268302.37 590096.24,3268302.47 590096.52,3268302.58 590096.80,3268302.69 590097.08,3268302.80 590097.36,3268302.90 590097.64,3268303.01 590097.92,3268303.12 590098.20,3268303.22 590098.48,3268303.33 590098.76,3268303.44 590099.04,3268303.55 590099.32,3268303.65 590099.60,3268303.76 590099.88,3268303.87 590100.16,3268303.98 590100.44,3268304.08 590100.72,3268304.19 590101.00,3268304.30 590101.28,3268304.40 590101.56,3268304.51 590101.84,3268304.62 590102.12,3268304.73 590102.40,3268304.83 590102.68,3268304.94 590102.96,3268305.05 590103.24,3268305.16 590103.52,3268305.26 590103.80,3268305.37 590104.08,3268305.48 590104.36,3268305.58 590104.64,3268305.69 590104.92,3268305.80 590105.20,3268305.91 590105.48,3268306.01 590105.76,3268306.12 590106.04,3268306.23 590106.32,3268306.34 590106.60,3268306.44 590106.88,3268306.55 590107.16,3268306.66 590107.44,3268306.76 590107.72,3268306.87 590108.00,3268306.98 590108.28,3268307.09 590108.57,3268307.19 590108.85,3268307.30 590109.13,3268307.41 590109.41,3268307.52 590109.69,3268307.62 590109.97,3268307.73 590110.25,3268307.84 590110.53,3268307.94 590110.81,3268308.05 590111.09,3268308.16 590111.37,3268308.27 590111.65,3268308.37 590111.93,3268308.48 590112.21,3268308.59 590112.49,3268308.70 590112.77,3268308.80 590113.05,3268308.91 590113.33,3268309.02 590113.61,3268309.12 590113.89,3268309.23 590114.17,3268309.34 590114.45,3268309.45 590114.73,3268309.55 590115.01,3268309.66 590115.29,3268309.77 590115.57,3268309.88 590115.85,3268309.98 590116.13,3268310.09 590116.41,3268310.20 590116.69,3268310.31 590116.97,3268310.41 590117.25,3268310.52 590117.53,3268310.63 590117.81,3268310.73 590118.09,3268310.84 590118.37,3268310.95 590118.65,3268311.06 590118.93,3268311.16 590119.21,3268311.27 590119.49,3268311.38 590119.77,3268311.49 590120.05,3268311.59 590120.33,3268311.70 590120.61,3268311.81 590120.89,3268311.91 590121.17,3268312.02 590121.45,3268312.13 590121.73,3268312.24 590122.01,3268312.34 590122.29,3268312.45 590122.57,3268312.56 590122.85,3268312.67 590123.13,3268312.77 590123.41,3268312.88 590123.69,3268312.99 590123.97,3268313.10 590124.25,3268313.20 590124.53,3268313.31 590124.81,3268313.42 590125.09,3268313.52 590125.37,3268313.63 590125.65,3268313.74 590125.93,3268313.85 590126.21,3268313.95 590126.49,3268314.06 590126.77,3268314.17 590127.05,3268314.28 590127.33,3268314.38 590127.62,3268314.49 590127.90,3268314.60 590128.18,3268314.71 590128.46,3268314.81 590128.74,3268314.92 590129.02,3268315.03 590129.30,3268315.14 590129.58,3268315.24 590129.86,3268315.35 590130.14,3268315.46 590130.42,3268315.57 590130.70,3268315.67 590130.98,3268315.78 590131.26,3268315.89 590131.54,3268316.00 590131.82,3268316.10 590132.10,3268316.21 590132.38,3268316.32 590132.66,3268316.43 590132.94,3268316.53 590133.22,3268316.64 590133.50,3268316.75 590133.78,3268316.86 590134.06,3268316.96 590134.34,3268317.07 590134.62,3268317.18 590134.90,3268317.28 590135.18,3268317.39 590135.46,3268317.50 590135.74,3268317.61 590136.02,3268317.71 590136.30,3268317.82 590136.58,3268317.93 590136.86,3268318.04 590137.14,3268318.14 590137.42,3268318.25 590137.70,3268318.36 590137.98,3268318.47 590138.26,3268318.57 590138.54,3268318.68 590138.82,3268318.79 590139.10,3268318.90 590139.38,3268319.00 590139.66,3268319.11 590139.67,3268319.11" />
    <connection from="145.0" to="131.0" fromLane="1" toLane="1" via="590094.28,3268301.72 590094.56,3268301.83 590094.84,3268301.94 590095.12,3268302.04 590095.40,3268302.15 590095.68,3268302.26 590095.96,3268302.37 590096.24,3268302.47 590096.52,3268302.58 590096.80,3268302.69 590097.08,3268302.80 590097.36,3268302.90 590097.64,3268303.01 590097.92,3268303.12 590098.20,3268303.22 590098.48,3268303.33 590098.76,3268303.44 590099.04,3268303.55 590099.32,3268303.65 590099.60,3268303.76 590099.88,3268303.87 590100.16,3268303.98 590100.44,3268304.08 590100.72,3268304.19 590101.00,3268304.30 590101.28,3268304.40 590101.56,3268304.51 590101.84,3268304.62 590102.12,3268304.73 590102.40,3268304.83 590102.68,3268304.94 590102.96,3268305.05 590103.24,3268305.16 590103.52,3268305.26 590103.80,3268305.37 590104.08,3268305.48 590104.36,3268305.58 590104.64,3268305.69 590104.92,3268305.80 590105.20,3268305.91 590105.48,3268306.01 590105.76,3268306.12 590106.04,3268306.23 590106.32,3268306.34 590106.60,3268306.44 590106.88,3268306.55 590107.16,3268306.66 590107.44,3268306.76 590107.72,3268306.87 590108.00,3268306.98 590108.28,3268307.09 590108.57,3268307.19 590108.85,3268307.30 590109.13,3268307.41 590109.41,3268307.52 590109.69,3268307.62 590109.97,3268307.73 590110.25,3268307.84 590110.53,3268307.94 590110.81,3268308.05 590111.09,3268308.16 590111.37,3268308.27 590111.65,3268308.37 590111.93,3268308.48 590112.21,3268308.59 590112.49,3268308.70 590112.77,3268308.80 590113.05,3268308.91 590113.33,3268309.02 590113.61,3268309.12 590113.89,3268309.23 590114.17,3268309.34 590114.45,3268309.45 590114.73,3268309.55 590115.01,3268309.66 590115.29,3268309.77 590115.57,3268309.88 590115.85,3268309.98 590116.13,3268310.09 590116.41,3268310.20 590116.69,3268310.31 590116.97,3268310.41 590117.25,3268310.52 590117.53,3268310.63 590117.81,3268310.73 590118.09,3268310.84 590118.37,3268310.95 590118.65,3268311.06 590118.93,3268311.16 590119.21,3268311.27 590119.49,3268311.38 590119.77,3268311.49 590120.05,3268311.59 590120.33,3268311.70 590120.61,3268311.81 590120.89,3268311.91 590121.17,3268312.02 590121.45,3268312.13 590121.73,3268312.24 590122.01,3268312.34 590122.29,3268312.45 590122.57,3268312.56 590122.85,3268312.67 590123.13,3268312.77 590123.41,3268312.88 590123.69,3268312.99 590123.97,3268313.10 590124.25,3268313.20 590124.53,3268313.31 590124.81,3268313.42 590125.09,3268313.52 590125.37,3268313.63 590125.65,3268313.74 590125.93,3268313.85 590126.21,3268313.95 590126.49,3268314.06 590126.77,3268314.17 590127.05,3268314.28 590127.33,3268314.38 590127.62,3268314.49 590127.90,3268314.60 590128.18,3268314.71 590128.46,3268314.81 590128.74,3268314.92 590129.02,3268315.03 590129.30,3268315.14 590129.58,3268315.24 590129.86,3268315.35 590130.14,3268315.46 590130.42,3268315.57 590130.70,3268315.67 590130.98,3268315.78 590131.26,3268315.89 590131.54,3268316.00 590131.82,3268316.10 590132.10,3268316.21 590132.38,3268316.32 590132.66,3268316.43 590132.94,3268316.53 590133.22,3268316.64 590133.50,3268316.75 590133.78,3268316.86 590134.06,3268316.96 590134.34,3268317.07 590134.62,3268317.18 590134.90,3268317.28 590135.18,3268317.39 590135.46,3268317.50 590135.74,3268317.61 590136.02,3268317.71 590136.30,3268317.82 590136.58,3268317.93 590136.86,3268318.04 590137.14,3268318.14 590137.42,3268318.25 590137.70,3268318.36 590137.98,3268318.47 590138.26,3268318.57 590138.54,3268318.68 590138.82,3268318.79 590139.10,3268318.90 590139.38,3268319.00 590139.66,3268319.11 590139.67,3268319.11" />
    <connection from="753.0" to="773.0" fromLane="1" toLane="0" via="777181.95,3297138.21 777182.22,3297138.34 777182.49,3297138.47 777182.76,3297138.59 777183.04,3297138.72 777183.31,3297138.85 777183.58,3297138.98 777183.85,3297139.10 777184.12,3297139.23 777184.39,3297139.36 777184.66,3297139.49 777184.94,3297139.61 777185.21,3297139.74 777185.48,3297139.87 777185.75,3297140.00 777186.02,3297140.13 777186.29,3297140.25 777186.57,3297140.38 777186.84,3297140.51 777187.11,3297140.64 777187.38,3297140.76 777187.65,3297140.89 777187.92,3297141.02 777188.19,3297141.15 777188.47,3297141.27 777188.74,3297141.40 777189.01,3297141.53 777189.28,3297141.66 777189.55,3297141.78 777189.82,3297141.91 777190.09,3297142.04 777190.37,3297142.17 777190.64,3297142.29 777190.91,3297142.42 777191.18,3297142.55 777191.45,3297142.68 777191.72,3297142.80 777192.00,3297142.93 777192.27,3297143.06 777192.54,3297143.19 777192.81,3297143.31 777193.08,3297143.44 777193.35,3297143.57 777193.62,3297143.70 777193.90,3297143.82 777194.17,3297143.95 777194.44,3297144.08 777194.71,3297144.21 777194.98,3297144.34 777195.25,3297144.46 777195.53,3297144.59 777195.80,3297144.72 777196.07,3297144.85 777196.34,3297144.97 777196.61,3297145.10 777196.88,3297145.23 777197.15,3297145.36 777197.43,3297145.48 777197.70,3297145.61 777197.97,3297145.74 777198.24,3297145.87 777198.51,3297145.99 777198.78,3297146.12 777199.06,3297146.25 777199.33,3297146.38 777199.60,3297146.50 777199.87,3297146.63 777200.14,3297146.76 777200.41,3297146.89 777200.68,3297147.01 777200.96,3297147.14 777201.23,3297147.27 777201.50,3297147.40 777201.77,3297147.52 777202.04,3297147.65 777202.31,3297147.78 777202.59,3297147.91 777202.86,3297148.03 777203.13,3297148.16 777203.40,3297148.29 777203.67,3297148.42 777203.94,3297148.54 777204.21,3297148.67 777204.49,3297148.80 777204.76,3297148.93 777205.03,3297149.06 777205.30,3297149.18 777205.57,3297149.31 777205.84,3297149.44 777206.11,3297149.57 777206.39,3297149.69 777206.66,3297149.82 777206.93,3297149.95 777207.20,3297150.08 777207.47,3297150.20 777207.74,3297150.33 777208.02,3297150.46 777208.29,3297150.59 777208.56,3297150.71 777208.83,3297150.84 777209.10,3297150.97 777209.37,3297151.10 777209.64,3297151.22 777209.92,3297151.35 777210.19,3297151.48 777210.46,3297151.61 777210.73,3297151.73 777211.00,3297151.86 777211.27,3297151.99 777211.55,3297152.12 777211.82,3297152.24 777212.09,3297152.37 777212.36,3297152.50 777212.63,3297152.63 777212.90,3297152.75 777213.17,3297152.88 777213.45,3297153.01 777213.72,3297153.14 777213.99,3297153.27 777214.26,3297153.39 777214.53,3297153.52 777214.80,3297153.65 777215.08,3297153.78 777215.35,3297153.90 777215.62,3297154.03 777215.89,3297154.16 777216.16,3297154.29 777216.43,3297154.41 777216.70,3297154.54 777216.98,3297154.67 777217.25,3297154.80 777217.52,3297154.92 777217.79,3297155.05 777218.06,3297155.18 777218.33,3297155.31 777218.61,3297155.43 777218.88,3297155.56 777219.15,3297155.69 777219.42,3297155.82 777219.69,3297155.94 777219.96,3297156.07 777220.23,3297156.20 777220.51,3297156.33 777220.78,3297156.45 777221.05,3297156.58 777221.32,3297156.71 777221.59,3297156.84 777221.86,3297156.96 777222.13,3297157.09 777222.41,3297157.22 777222.68,3297157.35 777222.95,3297157.47 777223.22,3297157.60 777223.49,3297157.73 777223.76,3297157.86 777224.04,3297157.99 777224.31,3297158.11 777224.58,3297158.24 777224.85,3297158.37 777225.12,3297158.50 777225.39,3297158.62 777225.66,3297158.75 777225.94,3297158.88 777226.21,3297159.01 777226.48,3297159.13 777226.75,3297159.26 777227.02,3297159.39 777227.30,3297159.51 777227.57,3297159.62 777227.85,3297159.74 777228.13,3297159.86 777228.40,3297159.98 777228.68,3297160.10 777228.95,3297160.22 777229.23,3297160.33 777229.50,3297160.45 777229.78,3297160.57 777230.06,3297160.69 777230.33,3297160.81 777230.61,3297160.92 777230.88,3297161.04 777231.16,3297161.16 777231.43,3297161.28 777231.71,3297161.40 777231.99,3297161.52 777232.26,3297161.63 777232.54,3297161.75 777232.81,3297161.87 777233.09,3297161.99 777233.36,3297162.11 777233.64,3297162.22 777233.92,3297162.34 777234.19,3297162.46 777234.47,3297162.58 777234.74,3297162.70 777235.02,3297162.81 777235.29,3297162.93 777235.57,3297163.05 777235.85,3297163.17 777236.12,3297163.29 777236.40,3297163.41 777236.67,3297163.52 777236.95,3297163.64 777237.23,3297163.76 777237.50,3297163.88 777237.78,3297164.00 777238.05,3297164.11 777238.33,3297164.23 777238.60,3297164.35 777238.88,3297164.47 777239.16,3297164.59 777239.43,3297164.71 777239.71,3297164.82 777239.98,3297164.94 777240.26,3297165.06 777240.53,3297165.18 777240.81,3297165.30 777241.09,3297165.41 777241.36,3297165.53 777241.64,3297165.65 777241.91,3297165.77 777242.19,3297165.89 777242.46,3297166.01 777242.74,3297166.12 777243.02,3297166.24 777243.29,3297166.36 777243.57,3297166.48 777243.84,3297166.60 777244.12,3297166.71 777244.39,3297166.83 777244.67,3297166.95 777244.95,3297167.07 777245.22,3297167.19 777245.50,3297167.31 777245.77,3297167.42 777246.05,3297167.54 777246.32,3297167.66 777246.60,3297167.78 777246.88,3297167.90 777247.15,3297168.01 777247.43,3297168.13 777247.70,3297168.25 777247.98,3297168.37 777248.26,3297168.49 777248.53,3297168.59 777248.82,3297168.70 777249.10,3297168.81 777249.38,3297168.92 777249.66,3297169.02 777249.94,3297169.13 777250.22,3297169.24 777250.50,3297169.35 777250.78,3297169.45 777251.06,3297169.56 777251.34,3297169.67 777251.62,3297169.78 777251.90,3297169.88 777252.18,3297169.99 777252.46,3297170.10 777252.74,3297170.21 777253.02,3297170.31 777253.30,3297170.42 777253.58,3297170.53 777253.86,3297170.64 777254.14,3297170.74 777254.42,3297170.85 777254.70,3297170.96 777254.98,3297171.07 777255.26,3297171.17 777255.54,3297171.28 777255.82,3297171.39 777256.10,3297171.50 777256.38,3297171.60 777256.66,3297171.71 777256.94,3297171.82 777257.22,3297171.92 777257.50,3297172.03 777257.78,3297172.14 777258.06,3297172.25 777258.34,3297172.35 777258.62,3297172.46 777258.90,3297172.57 777259.18,3297172.68 777259.46,3297172.78 777259.74,3297172.89 777260.02,3297173.00 777260.30,3297173.11 777260.58,3297173.21 777260.86,3297173.32 777261.14,3297173.43 777261.42,3297173.54 777261.70,3297173.64 777261.98,3297173.75 777262.26,3297173.86 777262.54,3297173.97 777262.82,3297174.07 777263.10,3297174.18 777263.38,3297174.29 777263.66,3297174.40 777263.94,3297174.50 777264.22,3297174.61 777264.50,3297174.72 777264.78,3297174.83 777265.06,3297174.93 777265.34,3297175.04 777265.62,3297175.15 777265.90,3297175.26 777266.18,3297175.36 777266.46,3297175.47 777266.74,3297175.58 777267.02,3297175.68 777267.30,3297175.79 777267.59,3297175.89 777267.87,3297175.99 777268.15,3297176.09 777268.43,3297176.19 777268.72,3297176.29 777269.00,3297176.39 777269.28,3297176.49 777269.57,3297176.59 777269.85,3297176.68 777270.13,3297176.78 777270.42,3297176.88 777270.70,3297176.98 777270.98,3297177.08 777271.27,3297177.18 777271.55,3297177.28 777271.83,3297177.38 777272.12,3297177.48 777272.40,3297177.58 777272.68,3297177.68 777272.96,3297177.78 777273.25,3297177.87 777273.53,3297177.97 777273.81,3297178.07 777274.10,3297178.17 777274.38,3297178.27 777274.66,3297178.37 777274.95,3297178.47 777275.23,3297178.57 777275.51,3297178.67 777275.80,3297178.77 777276.08,3297178.87 777276.36,3297178.97 777276.65,3297179.07 777276.93,3297179.16 777277.21,3297179.26 777277.49,3297179.36 777277.78,3297179.46 777278.06,3297179.56 777278.34,3297179.66 777278.63,3297179.76 777278.91,3297179.86 777279.19,3297179.96 777279.48,3297180.06 777279.76,3297180.16 777280.04,3297180.26 777280.33,3297180.36 777280.61,3297180.45 777280.89,3297180.55 777281.18,3297180.65 777281.46,3297180.75 777281.74,3297180.85 777282.02,3297180.95 777282.31,3297181.05 777282.59,3297181.15 777282.87,3297181.25 777283.16,3297181.35 777283.44,3297181.45 777283.72,3297181.55 777284.01,3297181.64 777284.29,3297181.74 777284.57,3297181.84 777284.86,3297181.94 777285.14,3297182.04 777285.42,3297182.14 777285.71,3297182.24 777285.99,3297182.34 777286.27,3297182.44 777286.55,3297182.54 777286.84,3297182.64 777287.12,3297182.74 777287.40,3297182.84 777287.69,3297182.93 777287.97,3297183.03 777288.25,3297183.13 777288.54,3297183.23 777288.82,3297183.33 777289.10,3297183.43 777289.39,3297183.53 777289.67,3297183.63 777289.95,3297183.73 777290.24,3297183.83 777290.52,3297183.93 777290.70,3297183.99" />
    <connection from="753.0" to="751.0" fromLane="4" toLane="3" via="777176.89,3297148.06 777177.16,3297148.20 777177.42,3297148.34 777177.69,3297148.47 777177.96,3297148.61 777178.22,3297148.75 777178.49,3297148.89 777178.75,3297149.03 777179.02,3297149.17 777179.29,3297149.30 777179.55,3297149.44 777179.82,3297149.58 777180.09,3297149.72 777180.35,3297149.86 777180.62,3297150.00 777180.88,3297150.13 777181.15,3297150.27 777181.42,3297150.41 777181.68,3297150.55 777181.95,3297150.69 777182.21,3297150.83 777182.48,3297150.96 777182.75,3297151.10 777183.01,3297151.24 777183.28,3297151.38 777183.55,3297151.52 777183.81,3297151.66 777184.08,3297151.79 777184.34,3297151.93 777184.61,3297152.07 777184.88,3297152.21 777185.14,3297152.35 777185.41,3297152.49 777185.68,3297152.62 777185.94,3297152.76 777186.21,3297152.90 777186.48,3297153.03 777186.75,3297153.16 777187.02,3297153.30 777187.28,3297153.43 777187.55,3297153.57 777187.82,3297153.70 777188.09,3297153.83 777188.36,3297153.97 777188.63,3297154.10 777188.89,3297154.24 777189.16,3297154.37 777189.43,3297154.50 777189.70,3297154.64 777189.97,3297154.77 777190.24,3297154.91 777190.50,3297155.04 777190.77,3297155.17 777191.04,3297155.31 777191.31,3297155.44 777191.58,3297155.57 777191.85,3297155.71 777192.12,3297155.84 777192.38,3297155.98 777192.65,3297156.11 777192.92,3297156.24 777193.19,3297156.38 777193.46,3297156.51 777193.73,3297156.65 777193.99,3297156.78 777194.26,3297156.91 777194.53,3297157.05 777194.80,3297157.18 777195.07,3297157.32 777195.34,3297157.45 777195.61,3297157.58 777195.87,3297157.72 777196.14,3297157.85 777196.41,3297157.98 777196.68,3297158.11 777196.95,3297158.24 777197.22,3297158.38 777197.49,3297158.51 777197.76,3297158.64 777198.03,3297158.77 777198.30,3297158.90 777198.57,3297159.03 777198.84,3297159.17 777199.11,3297159.30 777199.38,3297159.43 777199.65,3297159.56 777199.92,3297159.69 777200.19,3297159.82 777200.46,3297159.96 777200.73,3297160.09 777201.00,3297160.22 777201.26,3297160.35 777201.53,3297160.48 777201.80,3297160.62 777202.07,3297160.75 777202.34,3297160.88 777202.61,3297161.01 777202.88,3297161.14 777203.15,3297161.27 777203.42,3297161.41 777203.69,3297161.54 777203.96,3297161.67 777204.23,3297161.80 777204.50,3297161.93 777204.77,3297162.06 777205.04,3297162.20 777205.31,3297162.33 777205.58,3297162.46 777205.85,3297162.59 777206.12,3297162.72 777206.39,3297162.86 777206.66,3297162.99 777206.93,3297163.12 777207.20,3297163.25 777207.47,3297163.37 777207.74,3297163.50 777208.01,3297163.63 777208.28,3297163.76 777208.55,3297163.89 777208.82,3297164.02 777209.09,3297164.15 777209.36,3297164.28 777209.63,3297164.41 777209.90,3297164.54 777210.17,3297164.67 777210.44,3297164.80 777210.71,3297164.93 777210.98,3297165.06 777211.25,3297165.19 777211.52,3297165.32 777211.80,3297165.45 777212.07,3297165.58 777212.34,3297165.71 777212.61,3297165.84 777212.88,3297165.97 777213.15,3297166.10 777213.42,3297166.23 777213.69,3297166.36 777213.96,3297166.49 777214.23,3297166.62 777214.50,3297166.75 777214.77,3297166.88 777215.04,3297167.01 777215.31,3297167.14 777215.58,3297167.27 777215.85,3297167.40 777216.12,3297167.53 777216.39,3297167.66 777216.66,3297167.79 777216.94,3297167.91 777217.21,3297168.04 777217.48,3297168.17 777217.75,3297168.30 777218.02,3297168.43 777218.29,3297168.56 777218.56,3297168.69 777218.83,3297168.82 777219.10,3297168.95 777219.37,3297169.08 777219.64,3297169.21 777219.91,3297169.34 777220.18,3297169.47 777220.46,3297169.59 777220.73,3297169.72 777221.00,3297169.84 777221.27,3297169.97 777221.55,3297170.10 777221.82,3297170.22 777222.09,3297170.35 777222.36,3297170.47 777222.63,3297170.60 777222.91,3297170.72 777223.18,3297170.85 777223.45,3297170.97 777223.72,3297171.10 777224.00,3297171.23 777224.27,3297171.35 777224.54,3297171.48 777224.81,3297171.60 777225.09,3297171.73 777225.36,3297171.85 777225.63,3297171.98 777225.90,3297172.11 777226.18,3297172.23 777226.45,3297172.36 777226.72,3297172.48 777226.99,3297172.61 777227.27,3297172.73 777227.54,3297172.86 777227.81,3297172.99 777228.08,3297173.11 777228.36,3297173.24 777228.63,3297173.36 777228.90,3297173.49 777229.17,3297173.61 777229.45,3297173.74 777229.72,3297173.87 777229.99,3297173.99 777230.26,3297174.12 777230.54,3297174.24 777230.81,3297174.36 777231.08,3297174.49 777231.36,3297174.61 777231.63,3297174.73 777231.90,3297174.86 777232.18,3297174.98 777232.45,3297175.10 777232.72,3297175.23 777233.00,3297175.35 777233.27,3297175.47 777233.54,3297175.60 777233.82,3297175.72 777234.09,3297175.84 777234.36,3297175.97 777234.64,3297176.09 777234.91,3297176.22 777235.18,3297176.34 777235.46,3297176.46 777235.73,3297176.59 777236.00,3297176.71 777236.28,3297176.83 777236.55,3297176.96 777236.82,3297177.08 777237.10,3297177.20 777237.37,3297177.33 777237.65,3297177.45 777237.92,3297177.57 777238.19,3297177.70 777238.47,3297177.82 777238.74,3297177.94 777239.01,3297178.07 777239.29,3297178.19 777239.56,3297178.31 777239.83,3297178.44 777240.11,3297178.56 777240.38,3297178.68 777240.65,3297178.81 777240.93,3297178.93 777241.20,3297179.05 777241.47,3297179.18 777241.75,3297179.30 777242.02,3297179.42 777242.29,3297179.55 777242.57,3297179.67 777242.84,3297179.79 777243.11,3297179.92 777243.39,3297180.04 777243.66,3297180.16 777243.93,3297180.29 777244.21,3297180.41 777244.48,3297180.53 777244.76,3297180.65 777245.03,3297180.77 777245.31,3297180.89 777245.58,3297181.01 777245.86,3297181.13 777246.13,3297181.25 777246.41,3297181.37 777246.69,3297181.48 777246.96,3297181.60 777247.24,3297181.72 777247.51,3297181.84 777247.79,3297181.96 777248.06,3297182.08 777248.34,3297182.20 777248.61,3297182.32 777248.89,3297182.44 777249.16,3297182.56 777249.44,3297182.68 777249.71,3297182.80 777249.99,3297182.92 777250.26,3297183.04 777250.54,3297183.16 777250.81,3297183.28 777251.09,3297183.39 777251.36,3297183.51 777251.64,3297183.63 777251.91,3297183.75 777252.19,3297183.87 777252.46,3297183.99 777252.74,3297184.11 777253.02,3297184.23 777253.29,3297184.35 777253.57,3297184.47 777253.84,3297184.59 777254.12,3297184.71 777254.39,3297184.83 777254.67,3297184.95 777254.94,3297185.07 777255.22,3297185.19 777255.49,3297185.30 777255.77,3297185.42 777256.04,3297185.54 777256.32,3297185.66 777256.59,3297185.78 777256.87,3297185.90 777257.14,3297186.02 777257.42,3297186.14 777257.69,3297186.26 777257.97,3297186.38 777258.24,3297186.50 777258.52,3297186.62 777258.80,3297186.73 777259.07,3297186.85 777259.35,3297186.97 777259.63,3297187.08 777259.90,3297187.20 777260.18,3297187.32 777260.45,3297187.43 777260.73,3297187.55 777261.01,3297187.67 777261.28,3297187.78 777261.56,3297187.90 777261.84,3297188.02 777262.11,3297188.13 777262.39,3297188.25 777262.67,3297188.37 777262.94,3297188.48 777263.22,3297188.60 777263.50,3297188.72 777263.77,3297188.83 777264.05,3297188.95 777264.32,3297189.07 777264.60,3297189.18 777264.88,3297189.30 777265.15,3297189.42 777265.43,3297189.53 777265.71,3297189.65 777265.98,3297189.77 777266.26,3297189.88 777266.54,3297190.00 777266.81,3297190.11 777267.09,3297190.23 777267.37,3297190.35 777267.64,3297190.46 777267.92,3297190.58 777268.19,3297190.70 777268.47,3297190.81 777268.75,3297190.93 777269.02,3297191.05 777269.30,3297191.16 777269.58,3297191.28 777269.85,3297191.40 777270.13,3297191.51 777270.41,3297191.63 777270.68,3297191.75 777270.96,3297191.86 777271.24,3297191.98 777271.51,3297192.10 777271.79,3297192.21 777272.07,3297192.33 777272.34,3297192.44 777272.62,3297192.55 777272.90,3297192.66 777273.18,3297192.78 777273.46,3297192.89 777273.74,3297193.00 777274.01,3297193.11 777274.29,3297193.22 777274.57,3297193.34 777274.85,3297193.45 777275.13,3297193.56 777275.40,3297193.67 777275.68,3297193.79 777275.96,3297193.90 777276.24,3297194.01 777276.52,3297194.12 777276.80,3297194.24 777277.07,3297194.35 777277.35,3297194.46 777277.63,3297194.57 777277.91,3297194.68 777278.19,3297194.80 777278.46,3297194.91 777278.74,3297195.02 777279.02,3297195.13 777279.30,3297195.25 777279.58,3297195.36 777279.86,3297195.47 777280.13,3297195.58 777280.41,3297195.69 777280.69,3297195.81 777280.97,3297195.92 777281.25,3297196.03 777281.52,3297196.14 777281.80,3297196.26 777282.08,3297196.37 777282.36,3297196.48 777282.64,3297196.59 777282.92,3297196.71 777283.19,3297196.82 777283.47,3297196.93 777283.75,3297197.04 777284.03,3297197.15 777284.31,3297197.27 777284.58,3297197.38 777284.86,3297197.49 777285.14,3297197.60 777285.42,3297197.72 777285.60,3297197.79" />