<?xml version="1.0" encoding="UTF-8"?>

<!-- generated on 2025-10-29 03:01:35.127808 by Eclipse SUMO randomTrips.py 23d18e1e9
<configuration>
    <net-file value="/home/sdai/harry/TeraSim/jupiter/eb/map.net.xml"/>
    <output-trip-file value="/home/sdai/harry/TeraSim/jupiter/eb/trips.trips.xml"/>
    <route-file value="/home/sdai/harry/TeraSim/jupiter/eb/vehicles.rou.xml"/>
    <prefix value="vehicle"/>
    <vehicle-class value="passenger"/>
    <length value="True"/>
    <lanes value="True"/>
    <speed-exponent value="5.0"/>
    <fringe-speed-exponent value="5.0"/>
    <fringe-factor value="100"/>
    <allow-fringe value="True"/>
    <seed value="7905"/>
    <random value="True"/>
    <validate value="True"/>
    <period value="0.3"/>
</configuration>
-->

<!-- generated on 2025-10-29 03:01:34 by Eclipse SUMO duarouter Version 1.23.1
<duarouterConfiguration xmlns:xsi="http://www.w3.org/2001/XMLSchema-instance" xsi:noNamespaceSchemaLocation="http://sumo.dlr.de/xsd/duarouterConfiguration.xsd">

    <input>
        <net-file value="/home/sdai/harry/TeraSim/jupiter/eb/map.net.xml"/>
        <route-files value="/home/sdai/harry/TeraSim/jupiter/eb/trips.trips.xml"/>
    </input>

    <output>
        <output-file value="/home/sdai/harry/TeraSim/jupiter/eb/trips.trips.xml.tmp"/>
        <alternatives-output value="NUL"/>
        <write-trips value="true"/>
    </output>

    <time>
        <begin value="0"/>
        <end value="3600.0"/>
    </time>

    <report>
        <no-warnings value="true"/>
        <ignore-errors value="true"/>
        <no-step-log value="true"/>
    </report>

</duarouterConfiguration>
-->

<routes xmlns:xsi="http://www.w3.org/2001/XMLSchema-instance" xsi:noNamespaceSchemaLocation="http://sumo.dlr.de/xsd/routes_file.xsd">
    <vType id="vehicle_passenger" vClass="passenger"/>
    <trip id="vehicle13" type="vehicle_passenger" depart="3.90" from="603.0" to="621.0"/>
    <trip id="vehicle35" type="vehicle_passenger" depart="10.50" from="484.0" to="529.0"/>
    <trip id="vehicle42" type="vehicle_passenger" depart="12.60" from="594.0" to="594.0"/>
    <trip id="vehicle47" type="vehicle_passenger" depart="14.10" from="371.0" to="398.0"/>
    <trip id="vehicle63" type="vehicle_passenger" depart="18.90" from="575.0" to="595.0"/>
    <trip id="vehicle70" type="vehicle_passenger" depart="21.00" from="609.0" to="576.0"/>
    <trip id="vehicle80" type="vehicle_passenger" depart="24.00" from="393.0" to="410.0"/>
    <trip id="vehicle132" type="vehicle_passenger" depart="39.60" from="582.0" to="581.0"/>
    <trip id="vehicle147" type="vehicle_passenger" depart="44.10" from="393.0" to="410.0"/>
    <trip id="vehicle151" type="vehicle_passenger" depart="45.30" from="582.0" to="581.0"/>
    <trip id="vehicle161" type="vehicle_passenger" depart="48.30" from="543.0" to="593.0"/>
    <trip id="vehicle183" type="vehicle_passenger" depart="54.90" from="594.0" to="594.0"/>
    <trip id="vehicle271" type="vehicle_passenger" depart="81.30" from="575.0" to="593.0"/>
    <trip id="vehicle279" type="vehicle_passenger" depart="83.70" from="587.0" to="611.0"/>
    <trip id="vehicle282" type="vehicle_passenger" depart="84.60" from="393.0" to="410.0"/>
    <trip id="vehicle351" type="vehicle_passenger" depart="105.30" from="484.0" to="529.0"/>
    <trip id="vehicle386" type="vehicle_passenger" depart="115.80" from="582.0" to="581.0"/>
    <trip id="vehicle436" type="vehicle_passenger" depart="130.80" from="352.0" to="364.0"/>
    <trip id="vehicle451" type="vehicle_passenger" depart="135.30" from="371.0" to="391.0"/>
    <trip id="vehicle460" type="vehicle_passenger" depart="138.00" from="577.0" to="593.0"/>
    <trip id="vehicle468" type="vehicle_passenger" depart="140.40" from="523.0" to="544.0"/>
    <trip id="vehicle479" type="vehicle_passenger" depart="143.70" from="603.0" to="621.0"/>
    <trip id="vehicle480" type="vehicle_passenger" depart="144.00" from="807.0" to="581.0"/>
    <trip id="vehicle494" type="vehicle_passenger" depart="148.20" from="493.0" to="491.0"/>
    <trip id="vehicle521" type="vehicle_passenger" depart="156.30" from="440.0" to="496.0"/>
    <trip id="vehicle530" type="vehicle_passenger" depart="159.00" from="577.0" to="593.0"/>
    <trip id="vehicle540" type="vehicle_passenger" depart="162.00" from="400.0" to="387.0"/>
    <trip id="vehicle554" type="vehicle_passenger" depart="166.20" from="393.0" to="410.0"/>
    <trip id="vehicle597" type="vehicle_passenger" depart="179.10" from="523.0" to="557.0"/>
    <trip id="vehicle617" type="vehicle_passenger" depart="185.10" from="609.0" to="576.0"/>
    <trip id="vehicle632" type="vehicle_passenger" depart="189.60" from="577.0" to="593.0"/>
    <trip id="vehicle674" type="vehicle_passenger" depart="202.20" from="807.0" to="581.0"/>
    <trip id="vehicle690" type="vehicle_passenger" depart="207.00" from="475.0" to="496.0"/>
    <trip id="vehicle693" type="vehicle_passenger" depart="207.90" from="453.0" to="496.0"/>
    <trip id="vehicle714" type="vehicle_passenger" depart="214.20" from="523.0" to="544.0"/>
    <trip id="vehicle719" type="vehicle_passenger" depart="215.70" from="440.0" to="496.0"/>
    <trip id="vehicle724" type="vehicle_passenger" depart="217.20" from="807.0" to="581.0"/>
    <trip id="vehicle748" type="vehicle_passenger" depart="224.40" from="577.0" to="593.0"/>
    <trip id="vehicle776" type="vehicle_passenger" depart="232.80" from="577.0" to="593.0"/>
    <trip id="vehicle809" type="vehicle_passenger" depart="242.70" from="587.0" to="611.0"/>
    <trip id="vehicle811" type="vehicle_passenger" depart="243.30" from="543.0" to="593.0"/>
    <trip id="vehicle842" type="vehicle_passenger" depart="252.60" from="587.0" to="611.0"/>
    <trip id="vehicle853" type="vehicle_passenger" depart="255.90" from="453.0" to="496.0"/>
    <trip id="vehicle854" type="vehicle_passenger" depart="256.20" from="453.0" to="476.0"/>
    <trip id="vehicle875" type="vehicle_passenger" depart="262.50" from="409.0" to="418.0"/>
    <trip id="vehicle881" type="vehicle_passenger" depart="264.30" from="345.0" to="364.0"/>
    <trip id="vehicle891" type="vehicle_passenger" depart="267.30" from="587.0" to="611.0"/>
    <trip id="vehicle913" type="vehicle_passenger" depart="273.90" from="393.0" to="412.0"/>
    <trip id="vehicle935" type="vehicle_passenger" depart="280.50" from="533.0" to="528.0"/>
    <trip id="vehicle942" type="vehicle_passenger" depart="282.60" from="400.0" to="387.0"/>
    <trip id="vehicle962" type="vehicle_passenger" depart="288.60" from="587.0" to="611.0"/>
    <trip id="vehicle970" type="vehicle_passenger" depart="291.00" from="493.0" to="491.0"/>
    <trip id="vehicle980" type="vehicle_passenger" depart="294.00" from="440.0" to="496.0"/>
    <trip id="vehicle983" type="vehicle_passenger" depart="294.90" from="402.0" to="387.0"/>
    <trip id="vehicle1003" type="vehicle_passenger" depart="300.90" from="393.0" to="410.0"/>
    <trip id="vehicle1017" type="vehicle_passenger" depart="305.10" from="400.0" to="387.0"/>
    <trip id="vehicle1035" type="vehicle_passenger" depart="310.50" from="594.0" to="594.0"/>
    <trip id="vehicle1048" type="vehicle_passenger" depart="314.40" from="393.0" to="410.0"/>
    <trip id="vehicle1054" type="vehicle_passenger" depart="316.20" from="493.0" to="491.0"/>
    <trip id="vehicle1089" type="vehicle_passenger" depart="326.70" from="523.0" to="557.0"/>
    <trip id="vehicle1093" type="vehicle_passenger" depart="327.90" from="345.0" to="364.0"/>
    <trip id="vehicle1125" type="vehicle_passenger" depart="337.50" from="594.0" to="594.0"/>
    <trip id="vehicle1173" type="vehicle_passenger" depart="351.90" from="587.0" to="611.0"/>
    <trip id="vehicle1181" type="vehicle_passenger" depart="354.30" from="400.0" to="387.0"/>
    <trip id="vehicle1194" type="vehicle_passenger" depart="358.20" from="533.0" to="530.0"/>
    <trip id="vehicle1214" type="vehicle_passenger" depart="364.20" from="594.0" to="594.0"/>
    <trip id="vehicle1227" type="vehicle_passenger" depart="368.10" from="385.0" to="391.0"/>
    <trip id="vehicle1239" type="vehicle_passenger" depart="371.70" from="577.0" to="593.0"/>
    <trip id="vehicle1307" type="vehicle_passenger" depart="392.10" from="533.0" to="530.0"/>
    <trip id="vehicle1311" type="vehicle_passenger" depart="393.30" from="582.0" to="581.0"/>
    <trip id="vehicle1316" type="vehicle_passenger" depart="394.80" from="594.0" to="594.0"/>
    <trip id="vehicle1320" type="vehicle_passenger" depart="396.00" from="582.0" to="581.0"/>
    <trip id="vehicle1352" type="vehicle_passenger" depart="405.60" from="587.0" to="611.0"/>
    <trip id="vehicle1361" type="vehicle_passenger" depart="408.30" from="807.0" to="581.0"/>
    <trip id="vehicle1384" type="vehicle_passenger" depart="415.20" from="440.0" to="496.0"/>
    <trip id="vehicle1400" type="vehicle_passenger" depart="420.00" from="587.0" to="611.0"/>
    <trip id="vehicle1405" type="vehicle_passenger" depart="421.50" from="577.0" to="593.0"/>
    <trip id="vehicle1424" type="vehicle_passenger" depart="427.20" from="587.0" to="611.0"/>
    <trip id="vehicle1437" type="vehicle_passenger" depart="431.10" from="807.0" to="581.0"/>
    <trip id="vehicle1456" type="vehicle_passenger" depart="436.80" from="393.0" to="410.0"/>
    <trip id="vehicle1589" type="vehicle_passenger" depart="476.70" from="582.0" to="581.0"/>
    <trip id="vehicle1606" type="vehicle_passenger" depart="481.80" from="453.0" to="496.0"/>
    <trip id="vehicle1616" type="vehicle_passenger" depart="484.80" from="577.0" to="593.0"/>
    <trip id="vehicle1629" type="vehicle_passenger" depart="488.70" from="603.0" to="621.0"/>
    <trip id="vehicle1635" type="vehicle_passenger" depart="490.50" from="587.0" to="611.0"/>
    <trip id="vehicle1664" type="vehicle_passenger" depart="499.20" from="609.0" to="576.0"/>
    <trip id="vehicle1672" type="vehicle_passenger" depart="501.60" from="543.0" to="595.0"/>
    <trip id="vehicle1673" type="vehicle_passenger" depart="501.90" from="533.0" to="530.0"/>
    <trip id="vehicle1684" type="vehicle_passenger" depart="505.20" from="582.0" to="581.0"/>
    <trip id="vehicle1716" type="vehicle_passenger" depart="514.80" from="543.0" to="593.0"/>
    <trip id="vehicle1732" type="vehicle_passenger" depart="519.60" from="582.0" to="581.0"/>
    <trip id="vehicle1759" type="vehicle_passenger" depart="527.70" from="400.0" to="387.0"/>
    <trip id="vehicle1782" type="vehicle_passenger" depart="534.60" from="371.0" to="391.0"/>
    <trip id="vehicle1800" type="vehicle_passenger" depart="540.00" from="582.0" to="581.0"/>
    <trip id="vehicle1805" type="vehicle_passenger" depart="541.50" from="409.0" to="405.0"/>
    <trip id="vehicle1806" type="vehicle_passenger" depart="541.80" from="609.0" to="576.0"/>
    <trip id="vehicle1815" type="vehicle_passenger" depart="544.50" from="377.0" to="391.0"/>
    <trip id="vehicle1867" type="vehicle_passenger" depart="560.10" from="406.0" to="406.0"/>
    <trip id="vehicle1878" type="vehicle_passenger" depart="563.40" from="543.0" to="593.0"/>
    <trip id="vehicle1889" type="vehicle_passenger" depart="566.70" from="371.0" to="391.0"/>
    <trip id="vehicle1910" type="vehicle_passenger" depart="573.00" from="558.0" to="595.0"/>
    <trip id="vehicle1925" type="vehicle_passenger" depart="577.50" from="543.0" to="563.0"/>
    <trip id="vehicle1962" type="vehicle_passenger" depart="588.60" from="345.0" to="379.0"/>
    <trip id="vehicle2029" type="vehicle_passenger" depart="608.70" from="533.0" to="528.0"/>
    <trip id="vehicle2050" type="vehicle_passenger" depart="615.00" from="577.0" to="593.0"/>
    <trip id="vehicle2062" type="vehicle_passenger" depart="618.60" from="609.0" to="576.0"/>
    <trip id="vehicle2066" type="vehicle_passenger" depart="619.80" from="807.0" to="581.0"/>
    <trip id="vehicle2085" type="vehicle_passenger" depart="625.50" from="577.0" to="593.0"/>
    <trip id="vehicle2108" type="vehicle_passenger" depart="632.40" from="582.0" to="581.0"/>
    <trip id="vehicle2128" type="vehicle_passenger" depart="638.40" from="345.0" to="379.0"/>
    <trip id="vehicle2129" type="vehicle_passenger" depart="638.70" from="393.0" to="410.0"/>
    <trip id="vehicle2142" type="vehicle_passenger" depart="642.60" from="582.0" to="581.0"/>
    <trip id="vehicle2163" type="vehicle_passenger" depart="648.90" from="484.0" to="529.0"/>
    <trip id="vehicle2168" type="vehicle_passenger" depart="650.40" from="453.0" to="496.0"/>
    <trip id="vehicle2204" type="vehicle_passenger" depart="661.20" from="603.0" to="583.0"/>
    <trip id="vehicle2211" type="vehicle_passenger" depart="663.30" from="603.0" to="583.0"/>
    <trip id="vehicle2228" type="vehicle_passenger" depart="668.40" from="352.0" to="364.0"/>
    <trip id="vehicle2233" type="vehicle_passenger" depart="669.90" from="609.0" to="576.0"/>
    <trip id="vehicle2240" type="vehicle_passenger" depart="672.00" from="400.0" to="387.0"/>
    <trip id="vehicle2243" type="vehicle_passenger" depart="672.90" from="577.0" to="593.0"/>
    <trip id="vehicle2264" type="vehicle_passenger" depart="679.20" from="400.0" to="387.0"/>
    <trip id="vehicle2321" type="vehicle_passenger" depart="696.30" from="345.0" to="364.0"/>
    <trip id="vehicle2355" type="vehicle_passenger" depart="706.50" from="582.0" to="581.0"/>
    <trip id="vehicle2389" type="vehicle_passenger" depart="716.70" from="577.0" to="593.0"/>
    <trip id="vehicle2464" type="vehicle_passenger" depart="739.20" from="484.0" to="529.0"/>
    <trip id="vehicle2470" type="vehicle_passenger" depart="741.00" from="587.0" to="611.0"/>
    <trip id="vehicle2473" type="vehicle_passenger" depart="741.90" from="575.0" to="593.0"/>
    <trip id="vehicle2474" type="vehicle_passenger" depart="742.20" from="807.0" to="581.0"/>
    <trip id="vehicle2479" type="vehicle_passenger" depart="743.70" from="577.0" to="593.0"/>
    <trip id="vehicle2516" type="vehicle_passenger" depart="754.80" from="609.0" to="576.0"/>
    <trip id="vehicle2565" type="vehicle_passenger" depart="769.50" from="493.0" to="491.0"/>
    <trip id="vehicle2590" type="vehicle_passenger" depart="777.00" from="575.0" to="593.0"/>
    <trip id="vehicle2602" type="vehicle_passenger" depart="780.60" from="523.0" to="557.0"/>
    <trip id="vehicle2623" type="vehicle_passenger" depart="786.90" from="493.0" to="491.0"/>
    <trip id="vehicle2631" type="vehicle_passenger" depart="789.30" from="609.0" to="576.0"/>
    <trip id="vehicle2663" type="vehicle_passenger" depart="798.90" from="603.0" to="621.0"/>
    <trip id="vehicle2664" type="vehicle_passenger" depart="799.20" from="582.0" to="581.0"/>
    <trip id="vehicle2667" type="vehicle_passenger" depart="800.10" from="543.0" to="593.0"/>
    <trip id="vehicle2688" type="vehicle_passenger" depart="806.40" from="609.0" to="576.0"/>
    <trip id="vehicle2695" type="vehicle_passenger" depart="808.50" from="609.0" to="576.0"/>
    <trip id="vehicle2722" type="vehicle_passenger" depart="816.60" from="594.0" to="594.0"/>
    <trip id="vehicle2727" type="vehicle_passenger" depart="818.10" from="603.0" to="621.0"/>
    <trip id="vehicle2732" type="vehicle_passenger" depart="819.60" from="543.0" to="595.0"/>
    <trip id="vehicle2770" type="vehicle_passenger" depart="831.00" from="807.0" to="581.0"/>
    <trip id="vehicle2793" type="vehicle_passenger" depart="837.90" from="587.0" to="611.0"/>
    <trip id="vehicle2805" type="vehicle_passenger" depart="841.50" from="587.0" to="611.0"/>
    <trip id="vehicle2823" type="vehicle_passenger" depart="846.90" from="436.0" to="446.0"/>
    <trip id="vehicle2825" type="vehicle_passenger" depart="847.50" from="575.0" to="593.0"/>
    <trip id="vehicle2843" type="vehicle_passenger" depart="852.90" from="493.0" to="491.0"/>
    <trip id="vehicle2913" type="vehicle_passenger" depart="873.90" from="582.0" to="581.0"/>
    <trip id="vehicle2933" type="vehicle_passenger" depart="879.90" from="582.0" to="581.0"/>
    <trip id="vehicle2939" type="vehicle_passenger" depart="881.70" from="582.0" to="581.0"/>
    <trip id="vehicle2982" type="vehicle_passenger" depart="894.60" from="609.0" to="576.0"/>
    <trip id="vehicle2988" type="vehicle_passenger" depart="896.40" from="603.0" to="621.0"/>
    <trip id="vehicle3015" type="vehicle_passenger" depart="904.50" from="577.0" to="593.0"/>
    <trip id="vehicle3028" type="vehicle_passenger" depart="908.40" from="807.0" to="581.0"/>
    <trip id="vehicle3032" type="vehicle_passenger" depart="909.60" from="352.0" to="379.0"/>
    <trip id="vehicle3040" type="vehicle_passenger" depart="912.00" from="807.0" to="581.0"/>
    <trip id="vehicle3075" type="vehicle_passenger" depart="922.50" from="609.0" to="576.0"/>
    <trip id="vehicle3106" type="vehicle_passenger" depart="931.80" from="345.0" to="364.0"/>
    <trip id="vehicle3128" type="vehicle_passenger" depart="938.40" from="393.0" to="410.0"/>
    <trip id="vehicle3156" type="vehicle_passenger" depart="946.80" from="609.0" to="576.0"/>
    <trip id="vehicle3160" type="vehicle_passenger" depart="948.00" from="543.0" to="593.0"/>
    <trip id="vehicle3162" type="vehicle_passenger" depart="948.60" from="609.0" to="576.0"/>
    <trip id="vehicle3188" type="vehicle_passenger" depart="956.40" from="609.0" to="576.0"/>
    <trip id="vehicle3211" type="vehicle_passenger" depart="963.30" from="609.0" to="576.0"/>
    <trip id="vehicle3221" type="vehicle_passenger" depart="966.30" from="440.0" to="476.0"/>
    <trip id="vehicle3299" type="vehicle_passenger" depart="989.70" from="807.0" to="581.0"/>
    <trip id="vehicle3361" type="vehicle_passenger" depart="1008.30" from="440.0" to="496.0"/>
    <trip id="vehicle3368" type="vehicle_passenger" depart="1010.40" from="603.0" to="621.0"/>
    <trip id="vehicle3377" type="vehicle_passenger" depart="1013.10" from="582.0" to="581.0"/>
    <trip id="vehicle3390" type="vehicle_passenger" depart="1017.00" from="533.0" to="528.0"/>
    <trip id="vehicle3421" type="vehicle_passenger" depart="1026.30" from="440.0" to="496.0"/>
    <trip id="vehicle3430" type="vehicle_passenger" depart="1029.00" from="440.0" to="496.0"/>
    <trip id="vehicle3436" type="vehicle_passenger" depart="1030.80" from="493.0" to="491.0"/>
    <trip id="vehicle3455" type="vehicle_passenger" depart="1036.50" from="377.0" to="391.0"/>
    <trip id="vehicle3476" type="vehicle_passenger" depart="1042.80" from="582.0" to="581.0"/>
    <trip id="vehicle3479" type="vehicle_passenger" depart="1043.70" from="603.0" to="583.0"/>
    <trip id="vehicle3480" type="vehicle_passenger" depart="1044.00" from="609.0" to="576.0"/>
    <trip id="vehicle3492" type="vehicle_passenger" depart="1047.60" from="409.0" to="418.0"/>
    <trip id="vehicle3523" type="vehicle_passenger" depart="1056.90" from="440.0" to="496.0"/>
    <trip id="vehicle3526" type="vehicle_passenger" depart="1057.80" from="406.0" to="406.0"/>
    <trip id="vehicle3536" type="vehicle_passenger" depart="1060.80" from="594.0" to="594.0"/>
    <trip id="vehicle3550" type="vehicle_passenger" depart="1065.00" from="352.0" to="364.0"/>
    <trip id="vehicle3555" type="vehicle_passenger" depart="1066.50" from="511.0" to="529.0"/>
    <trip id="vehicle3614" type="vehicle_passenger" depart="1084.20" from="558.0" to="593.0"/>
    <trip id="vehicle3616" type="vehicle_passenger" depart="1084.80" from="603.0" to="621.0"/>
    <trip id="vehicle3617" type="vehicle_passenger" depart="1085.10" from="609.0" to="576.0"/>
    <trip id="vehicle3636" type="vehicle_passenger" depart="1090.80" from="594.0" to="594.0"/>
    <trip id="vehicle3643" type="vehicle_passenger" depart="1092.90" from="377.0" to="391.0"/>
    <trip id="vehicle3667" type="vehicle_passenger" depart="1100.10" from="609.0" to="576.0"/>
    <trip id="vehicle3685" type="vehicle_passenger" depart="1105.50" from="533.0" to="528.0"/>
    <trip id="vehicle3694" type="vehicle_passenger" depart="1108.20" from="440.0" to="476.0"/>
    <trip id="vehicle3711" type="vehicle_passenger" depart="1113.30" from="371.0" to="391.0"/>
    <trip id="vehicle3736" type="vehicle_passenger" depart="1120.80" from="523.0" to="544.0"/>
    <trip id="vehicle3757" type="vehicle_passenger" depart="1127.10" from="609.0" to="576.0"/>
    <trip id="vehicle3769" type="vehicle_passenger" depart="1130.70" from="523.0" to="544.0"/>
    <trip id="vehicle3770" type="vehicle_passenger" depart="1131.00" from="440.0" to="496.0"/>
    <trip id="vehicle3812" type="vehicle_passenger" depart="1143.60" from="400.0" to="387.0"/>
    <trip id="vehicle3815" type="vehicle_passenger" depart="1144.50" from="577.0" to="593.0"/>
    <trip id="vehicle3857" type="vehicle_passenger" depart="1157.10" from="609.0" to="576.0"/>
    <trip id="vehicle3860" type="vehicle_passenger" depart="1158.00" from="582.0" to="581.0"/>
    <trip id="vehicle3871" type="vehicle_passenger" depart="1161.30" from="543.0" to="593.0"/>
    <trip id="vehicle3874" type="vehicle_passenger" depart="1162.20" from="371.0" to="391.0"/>
    <trip id="vehicle3882" type="vehicle_passenger" depart="1164.60" from="558.0" to="593.0"/>
    <trip id="vehicle3886" type="vehicle_passenger" depart="1165.80" from="440.0" to="476.0"/>
    <trip id="vehicle3888" type="vehicle_passenger" depart="1166.40" from="440.0" to="496.0"/>
    <trip id="vehicle3894" type="vehicle_passenger" depart="1168.20" from="493.0" to="491.0"/>
    <trip id="vehicle3902" type="vehicle_passenger" depart="1170.60" from="406.0" to="406.0"/>
    <trip id="vehicle3906" type="vehicle_passenger" depart="1171.80" from="582.0" to="581.0"/>
    <trip id="vehicle3923" type="vehicle_passenger" depart="1176.90" from="475.0" to="496.0"/>
    <trip id="vehicle3930" type="vehicle_passenger" depart="1179.00" from="582.0" to="581.0"/>
    <trip id="vehicle3936" type="vehicle_passenger" depart="1180.80" from="587.0" to="611.0"/>
    <trip id="vehicle3948" type="vehicle_passenger" depart="1184.40" from="582.0" to="581.0"/>
    <trip id="vehicle3974" type="vehicle_passenger" depart="1192.20" from="577.0" to="593.0"/>
    <trip id="vehicle3977" type="vehicle_passenger" depart="1193.10" from="484.0" to="529.0"/>
    <trip id="vehicle3992" type="vehicle_passenger" depart="1197.60" from="603.0" to="621.0"/>
    <trip id="vehicle4054" type="vehicle_passenger" depart="1216.20" from="543.0" to="595.0"/>
    <trip id="vehicle4087" type="vehicle_passenger" depart="1226.10" from="484.0" to="529.0"/>
    <trip id="vehicle4103" type="vehicle_passenger" depart="1230.90" from="582.0" to="581.0"/>
    <trip id="vehicle4127" type="vehicle_passenger" depart="1238.10" from="409.0" to="446.0"/>
    <trip id="vehicle4133" type="vehicle_passenger" depart="1239.90" from="493.0" to="491.0"/>
    <trip id="vehicle4142" type="vehicle_passenger" depart="1242.60" from="484.0" to="529.0"/>
    <trip id="vehicle4153" type="vehicle_passenger" depart="1245.90" from="400.0" to="387.0"/>
    <trip id="vehicle4163" type="vehicle_passenger" depart="1248.90" from="558.0" to="595.0"/>
    <trip id="vehicle4174" type="vehicle_passenger" depart="1252.20" from="484.0" to="529.0"/>
    <trip id="vehicle4179" type="vehicle_passenger" depart="1253.70" from="594.0" to="594.0"/>
    <trip id="vehicle4198" type="vehicle_passenger" depart="1259.40" from="377.0" to="391.0"/>
    <trip id="vehicle4226" type="vehicle_passenger" depart="1267.80" from="587.0" to="611.0"/>
    <trip id="vehicle4234" type="vehicle_passenger" depart="1270.20" from="582.0" to="581.0"/>
    <trip id="vehicle4238" type="vehicle_passenger" depart="1271.40" from="582.0" to="581.0"/>
    <trip id="vehicle4252" type="vehicle_passenger" depart="1275.60" from="345.0" to="364.0"/>
    <trip id="vehicle4299" type="vehicle_passenger" depart="1289.70" from="609.0" to="576.0"/>
    <trip id="vehicle4321" type="vehicle_passenger" depart="1296.30" from="577.0" to="593.0"/>
    <trip id="vehicle4324" type="vehicle_passenger" depart="1297.20" from="609.0" to="576.0"/>
    <trip id="vehicle4344" type="vehicle_passenger" depart="1303.20" from="587.0" to="611.0"/>
    <trip id="vehicle4385" type="vehicle_passenger" depart="1315.50" from="594.0" to="594.0"/>
    <trip id="vehicle4387" type="vehicle_passenger" depart="1316.10" from="402.0" to="387.0"/>
    <trip id="vehicle4409" type="vehicle_passenger" depart="1322.70" from="543.0" to="593.0"/>
    <trip id="vehicle4413" type="vehicle_passenger" depart="1323.90" from="345.0" to="364.0"/>
    <trip id="vehicle4430" type="vehicle_passenger" depart="1329.00" from="377.0" to="391.0"/>
    <trip id="vehicle4431" type="vehicle_passenger" depart="1329.30" from="440.0" to="496.0"/>
    <trip id="vehicle4448" type="vehicle_passenger" depart="1334.40" from="577.0" to="593.0"/>
    <trip id="vehicle4502" type="vehicle_passenger" depart="1350.60" from="377.0" to="391.0"/>
    <trip id="vehicle4507" type="vehicle_passenger" depart="1352.10" from="577.0" to="593.0"/>
    <trip id="vehicle4509" type="vehicle_passenger" depart="1352.70" from="511.0" to="529.0"/>
    <trip id="vehicle4525" type="vehicle_passenger" depart="1357.50" from="577.0" to="593.0"/>
    <trip id="vehicle4546" type="vehicle_passenger" depart="1363.80" from="489.0" to="489.0"/>
    <trip id="vehicle4549" type="vehicle_passenger" depart="1364.70" from="558.0" to="612.0"/>
    <trip id="vehicle4561" type="vehicle_passenger" depart="1368.30" from="582.0" to="581.0"/>
    <trip id="vehicle4564" type="vehicle_passenger" depart="1369.20" from="393.0" to="410.0"/>
    <trip id="vehicle4568" type="vehicle_passenger" depart="1370.40" from="577.0" to="593.0"/>
    <trip id="vehicle4574" type="vehicle_passenger" depart="1372.20" from="533.0" to="530.0"/>
    <trip id="vehicle4603" type="vehicle_passenger" depart="1380.90" from="587.0" to="611.0"/>
    <trip id="vehicle4641" type="vehicle_passenger" depart="1392.30" from="582.0" to="581.0"/>
    <trip id="vehicle4661" type="vehicle_passenger" depart="1398.30" from="582.0" to="581.0"/>
    <trip id="vehicle4670" type="vehicle_passenger" depart="1401.00" from="440.0" to="496.0"/>
    <trip id="vehicle4700" type="vehicle_passenger" depart="1410.00" from="400.0" to="387.0"/>
    <trip id="vehicle4758" type="vehicle_passenger" depart="1427.40" from="577.0" to="593.0"/>
    <trip id="vehicle4774" type="vehicle_passenger" depart="1432.20" from="609.0" to="576.0"/>
    <trip id="vehicle4792" type="vehicle_passenger" depart="1437.60" from="594.0" to="594.0"/>
    <trip id="vehicle4809" type="vehicle_passenger" depart="1442.70" from="440.0" to="496.0"/>
    <trip id="vehicle4824" type="vehicle_passenger" depart="1447.20" from="807.0" to="581.0"/>
    <trip id="vehicle4826" type="vehicle_passenger" depart="1447.80" from="440.0" to="496.0"/>
    <trip id="vehicle4832" type="vehicle_passenger" depart="1449.60" from="400.0" to="387.0"/>
    <trip id="vehicle4858" type="vehicle_passenger" depart="1457.40" from="533.0" to="528.0"/>
    <trip id="vehicle4977" type="vehicle_passenger" depart="1493.10" from="523.0" to="557.0"/>
    <trip id="vehicle4978" type="vehicle_passenger" depart="1493.40" from="475.0" to="496.0"/>
    <trip id="vehicle5001" type="vehicle_passenger" depart="1500.30" from="603.0" to="621.0"/>
    <trip id="vehicle5031" type="vehicle_passenger" depart="1509.30" from="400.0" to="387.0"/>
    <trip id="vehicle5038" type="vehicle_passenger" depart="1511.40" from="575.0" to="595.0"/>
    <trip id="vehicle5063" type="vehicle_passenger" depart="1518.90" from="582.0" to="581.0"/>
    <trip id="vehicle5067" type="vehicle_passenger" depart="1520.10" from="609.0" to="576.0"/>
    <trip id="vehicle5071" type="vehicle_passenger" depart="1521.30" from="582.0" to="581.0"/>
    <trip id="vehicle5133" type="vehicle_passenger" depart="1539.90" from="345.0" to="364.0"/>
    <trip id="vehicle5140" type="vehicle_passenger" depart="1542.00" from="377.0" to="398.0"/>
    <trip id="vehicle5167" type="vehicle_passenger" depart="1550.10" from="582.0" to="581.0"/>
    <trip id="vehicle5199" type="vehicle_passenger" depart="1559.70" from="603.0" to="621.0"/>
    <trip id="vehicle5201" type="vehicle_passenger" depart="1560.30" from="440.0" to="496.0"/>
    <trip id="vehicle5214" type="vehicle_passenger" depart="1564.20" from="582.0" to="581.0"/>
    <trip id="vehicle5216" type="vehicle_passenger" depart="1564.80" from="377.0" to="391.0"/>
    <trip id="vehicle5224" type="vehicle_passenger" depart="1567.20" from="543.0" to="563.0"/>
    <trip id="vehicle5245" type="vehicle_passenger" depart="1573.50" from="484.0" to="529.0"/>
    <trip id="vehicle5264" type="vehicle_passenger" depart="1579.20" from="393.0" to="410.0"/>
    <trip id="vehicle5268" type="vehicle_passenger" depart="1580.40" from="345.0" to="364.0"/>
    <trip id="vehicle5295" type="vehicle_passenger" depart="1588.50" from="400.0" to="387.0"/>
    <trip id="vehicle5367" type="vehicle_passenger" depart="1610.10" from="587.0" to="611.0"/>
    <trip id="vehicle5379" type="vehicle_passenger" depart="1613.70" from="493.0" to="491.0"/>
    <trip id="vehicle5385" type="vehicle_passenger" depart="1615.50" from="371.0" to="398.0"/>
    <trip id="vehicle5386" type="vehicle_passenger" depart="1615.80" from="582.0" to="581.0"/>
    <trip id="vehicle5389" type="vehicle_passenger" depart="1616.70" from="587.0" to="611.0"/>
    <trip id="vehicle5446" type="vehicle_passenger" depart="1633.80" from="440.0" to="476.0"/>
    <trip id="vehicle5463" type="vehicle_passenger" depart="1638.90" from="603.0" to="621.0"/>
    <trip id="vehicle5518" type="vehicle_passenger" depart="1655.40" from="400.0" to="387.0"/>
    <trip id="vehicle5519" type="vehicle_passenger" depart="1655.70" from="577.0" to="593.0"/>
    <trip id="vehicle5520" type="vehicle_passenger" depart="1656.00" from="527.0" to="544.0"/>
    <trip id="vehicle5555" type="vehicle_passenger" depart="1666.50" from="582.0" to="581.0"/>
    <trip id="vehicle5581" type="vehicle_passenger" depart="1674.30" from="575.0" to="593.0"/>
    <trip id="vehicle5609" type="vehicle_passenger" depart="1682.70" from="543.0" to="593.0"/>