<?xml version="1.0" encoding="UTF-8"?>

<!-- generated on 2025-11-23 22:17:43.599878 by Eclipse SUMO randomTrips.py 23d18e1e9
<configuration>
    <net-file value="/home/sdai/harry/TeraSim/jupiter/eb/eb.net.xml"/>
    <output-trip-file value="/home/sdai/harry/TeraSim/jupiter/eb/trips.trips.xml"/>
    <route-file value="/home/sdai/harry/TeraSim/jupiter/eb/vehicles.rou.xml"/>
    <prefix value="vehicle"/>
    <vehicle-class value="passenger"/>
    <length value="True"/>
    <lanes value="True"/>
    <speed-exponent value="5.0"/>
    <fringe-speed-exponent value="5.0"/>
    <fringe-factor value="100"/>
    <allow-fringe value="True"/>
    <seed value="9624"/>
    <random value="True"/>
    <validate value="True"/>
    <period value="0.3"/>
</configuration>
-->

<!-- generated on 2025-11-23 22:17:43 by Eclipse SUMO duarouter Version 1.23.1
<duarouterConfiguration xmlns:xsi="http://www.w3.org/2001/XMLSchema-instance" xsi:noNamespaceSchemaLocation="http://sumo.dlr.de/xsd/duarouterConfiguration.xsd">

    <input>
        <net-file value="/home/sdai/harry/TeraSim/jupiter/eb/eb.net.xml"/>
        <route-files value="/home/sdai/harry/TeraSim/jupiter/eb/trips.trips.xml"/>
    </input>

    <output>
        <output-file value="/home/sdai/harry/TeraSim/jupiter/eb/trips.trips.xml.tmp"/>
        <alternatives-output value="NUL"/>
        <write-trips value="true"/>
    </output>

    <time>
        <begin value="0"/>
        <end value="3600.0"/>
    </time>

    <report>
        <no-warnings value="true"/>
        <ignore-errors value="true"/>
        <no-step-log value="true"/>
    </report>

</duarouterConfiguration>
-->

<routes xmlns:xsi="http://www.w3.org/2001/XMLSchema-instance" xsi:noNamespaceSchemaLocation="http://sumo.dlr.de/xsd/routes_file.xsd">
    <vType id="vehicle_passenger" vClass="passenger"/>
    <trip id="vehicle1" type="vehicle_passenger" depart="0.30" from="231.0" to="274.0"/>
    <trip id="vehicle2" type="vehicle_passenger" depart="0.60" from="352.0" to="23.0"/>
    <trip id="vehicle3" type="vehicle_passenger" depart="0.90" from="409.0" to="583.0"/>
    <trip id="vehicle4" type="vehicle_passenger" depart="1.20" from="87.0" to="277.0"/>
    <trip id="vehicle8" type="vehicle_passenger" depart="2.40" from="87.0" to="775.0"/>
    <trip id="vehicle9" type="vehicle_passenger" depart="2.70" from="872.0" to="311.0"/>
    <trip id="vehicle11" type="vehicle_passenger" depart="3.30" from="87.0" to="733.0"/>
    <trip id="vehicle12" type="vehicle_passenger" depart="3.60" from="87.0" to="277.0"/>
    <trip id="vehicle13" type="vehicle_passenger" depart="3.90" from="167.0" to="250.0"/>
    <trip id="vehicle16" type="vehicle_passenger" depart="4.80" from="838.0" to="124.0"/>
    <trip id="vehicle18" type="vehicle_passenger" depart="5.40" from="945.0" to="278.0"/>
    <trip id="vehicle21" type="vehicle_passenger" depart="6.30" from="87.0" to="476.0"/>
    <trip id="vehicle25" type="vehicle_passenger" depart="7.50" from="87.0" to="277.0"/>
    <trip id="vehicle29" type="vehicle_passenger" depart="8.70" from="176.0" to="263.0"/>
    <trip id="vehicle30" type="vehicle_passenger" depart="9.00" from="87.0" to="522.0"/>
    <trip id="vehicle31" type="vehicle_passenger" depart="9.30" from="726.0" to="18.0"/>
    <trip id="vehicle33" type="vehicle_passenger" depart="9.90" from="167.0" to="311.0"/>
    <trip id="vehicle34" type="vehicle_passenger" depart="10.20" from="371.0" to="894.0"/>
    <trip id="vehicle36" type="vehicle_passenger" depart="10.80" from="87.0" to="807.0"/>
    <trip id="vehicle38" type="vehicle_passenger" depart="11.40" from="87.0" to="23.0"/>
    <trip id="vehicle43" type="vehicle_passenger" depart="12.90" from="87.0" to="797.0"/>
    <trip id="vehicle44" type="vehicle_passenger" depart="13.20" from="436.0" to="911.0"/>
    <trip id="vehicle46" type="vehicle_passenger" depart="13.80" from="453.0" to="691.0"/>
    <trip id="vehicle47" type="vehicle_passenger" depart="14.10" from="613.0" to="807.0"/>
    <trip id="vehicle48" type="vehicle_passenger" depart="14.40" from="339.0" to="927.0"/>
    <trip id="vehicle49" type="vehicle_passenger" depart="14.70" from="103.0" to="72.0"/>
    <trip id="vehicle52" type="vehicle_passenger" depart="15.60" from="87.0" to="460.0"/>
    <trip id="vehicle55" type="vehicle_passenger" depart="16.50" from="964.0" to="632.0"/>
    <trip id="vehicle56" type="vehicle_passenger" depart="16.80" from="558.0" to="691.0"/>
    <trip id="vehicle57" type="vehicle_passenger" depart="17.10" from="103.0" to="23.0"/>
    <trip id="vehicle58" type="vehicle_passenger" depart="17.40" from="87.0" to="148.0"/>
    <trip id="vehicle61" type="vehicle_passenger" depart="18.30" from="402.0" to="733.0"/>
    <trip id="vehicle63" type="vehicle_passenger" depart="18.90" from="87.0" to="72.0"/>
    <trip id="vehicle64" type="vehicle_passenger" depart="19.20" from="87.0" to="904.0"/>
    <trip id="vehicle67" type="vehicle_passenger" depart="20.10" from="916.0" to="775.0"/>
    <trip id="vehicle70" type="vehicle_passenger" depart="21.00" from="304.0" to="775.0"/>
    <trip id="vehicle73" type="vehicle_passenger" depart="21.90" from="837.0" to="866.0"/>
    <trip id="vehicle74" type="vehicle_passenger" depart="22.20" from="352.0" to="911.0"/>
    <trip id="vehicle75" type="vehicle_passenger" depart="22.50" from="409.0" to="460.0"/>
    <trip id="vehicle76" type="vehicle_passenger" depart="22.80" from="976.0" to="41.0"/>
    <trip id="vehicle78" type="vehicle_passenger" depart="23.40" from="765.0" to="30.0"/>
    <trip id="vehicle82" type="vehicle_passenger" depart="24.60" from="821.0" to="398.0"/>
    <trip id="vehicle91" type="vehicle_passenger" depart="27.30" from="717.0" to="23.0"/>
    <trip id="vehicle92" type="vehicle_passenger" depart="27.60" from="231.0" to="331.0"/>
    <trip id="vehicle95" type="vehicle_passenger" depart="28.50" from="921.0" to="37.0"/>
    <trip id="vehicle96" type="vehicle_passenger" depart="28.80" from="475.0" to="567.0"/>
    <trip id="vehicle98" type="vehicle_passenger" depart="29.40" from="453.0" to="702.0"/>
    <trip id="vehicle100" type="vehicle_passenger" depart="30.00" from="103.0" to="32.0"/>
    <trip id="vehicle102" type="vehicle_passenger" depart="30.60" from="87.0" to="37.0"/>
    <trip id="vehicle104" type="vehicle_passenger" depart="31.20" from="964.0" to="911.0"/>
    <trip id="vehicle107" type="vehicle_passenger" depart="32.10" from="339.0" to="361.0"/>
    <trip id="vehicle109" type="vehicle_passenger" depart="32.70" from="304.0" to="583.0"/>
    <trip id="vehicle110" type="vehicle_passenger" depart="33.00" from="409.0" to="904.0"/>
    <trip id="vehicle111" type="vehicle_passenger" depart="33.30" from="371.0" to="595.0"/>
    <trip id="vehicle112" type="vehicle_passenger" depart="33.60" from="87.0" to="235.0"/>
    <trip id="vehicle114" type="vehicle_passenger" depart="34.20" from="976.0" to="632.0"/>
    <trip id="vehicle115" type="vehicle_passenger" depart="34.50" from="821.0" to="274.0"/>
    <trip id="vehicle117" type="vehicle_passenger" depart="35.10" from="87.0" to="124.0"/>
    <trip id="vehicle118" type="vehicle_passenger" depart="35.40" from="409.0" to="595.0"/>
    <trip id="vehicle120" type="vehicle_passenger" depart="36.00" from="838.0" to="691.0"/>
    <trip id="vehicle124" type="vehicle_passenger" depart="37.20" from="304.0" to="631.0"/>
    <trip id="vehicle125" type="vehicle_passenger" depart="37.50" from="87.0" to="311.0"/>
    <trip id="vehicle129" type="vehicle_passenger" depart="38.70" from="103.0" to="277.0"/>
    <trip id="vehicle130" type="vehicle_passenger" depart="39.00" from="965.0" to="631.0"/>
    <trip id="vehicle135" type="vehicle_passenger" depart="40.50" from="304.0" to="632.0"/>
    <trip id="vehicle140" type="vehicle_passenger" depart="42.00" from="821.0" to="311.0"/>
    <trip id="vehicle143" type="vehicle_passenger" depart="42.90" from="872.0" to="733.0"/>
    <trip id="vehicle145" type="vehicle_passenger" depart="43.50" from="87.0" to="595.0"/>
    <trip id="vehicle147" type="vehicle_passenger" depart="44.10" from="837.0" to="714.0"/>
    <trip id="vehicle149" type="vehicle_passenger" depart="44.70" from="885.0" to="276.0"/>
    <trip id="vehicle150" type="vehicle_passenger" depart="45.00" from="87.0" to="691.0"/>
    <trip id="vehicle151" type="vehicle_passenger" depart="45.30" from="409.0" to="522.0"/>
    <trip id="vehicle154" type="vehicle_passenger" depart="46.20" from="945.0" to="670.0"/>
    <trip id="vehicle157" type="vehicle_passenger" depart="47.10" from="304.0" to="761.0"/>
    <trip id="vehicle158" type="vehicle_passenger" depart="47.40" from="409.0" to="911.0"/>
    <trip id="vehicle160" type="vehicle_passenger" depart="48.00" from="304.0" to="311.0"/>
    <trip id="vehicle165" type="vehicle_passenger" depart="49.50" from="964.0" to="18.0"/>
    <trip id="vehicle166" type="vehicle_passenger" depart="49.80" from="87.0" to="861.0"/>
    <trip id="vehicle167" type="vehicle_passenger" depart="50.10" from="838.0" to="398.0"/>
    <trip id="vehicle169" type="vehicle_passenger" depart="50.70" from="231.0" to="563.0"/>
    <trip id="vehicle170" type="vehicle_passenger" depart="51.00" from="726.0" to="23.0"/>
    <trip id="vehicle174" type="vehicle_passenger" depart="52.20" from="436.0" to="583.0"/>
    <trip id="vehicle176" type="vehicle_passenger" depart="52.80" from="765.0" to="18.0"/>
    <trip id="vehicle182" type="vehicle_passenger" depart="54.60" from="885.0" to="227.0"/>
    <trip id="vehicle185" type="vehicle_passenger" depart="55.50" from="837.0" to="418.0"/>
    <trip id="vehicle186" type="vehicle_passenger" depart="55.80" from="87.0" to="567.0"/>
    <trip id="vehicle188" type="vehicle_passenger" depart="56.40" from="837.0" to="311.0"/>
    <trip id="vehicle190" type="vehicle_passenger" depart="57.00" from="918.0" to="23.0"/>
    <trip id="vehicle192" type="vehicle_passenger" depart="57.60" from="453.0" to="670.0"/>
    <trip id="vehicle195" type="vehicle_passenger" depart="58.50" from="87.0" to="460.0"/>
    <trip id="vehicle197" type="vehicle_passenger" depart="59.10" from="558.0" to="714.0"/>
    <trip id="vehicle200" type="vehicle_passenger" depart="60.00" from="231.0" to="250.0"/>
    <trip id="vehicle203" type="vehicle_passenger" depart="60.90" from="965.0" to="23.0"/>
    <trip id="vehicle205" type="vehicle_passenger" depart="61.50" from="87.0" to="840.0"/>
    <trip id="vehicle206" type="vehicle_passenger" depart="61.80" from="945.0" to="318.0"/>
    <trip id="vehicle209" type="vehicle_passenger" depart="62.70" from="87.0" to="235.0"/>
    <trip id="vehicle211" type="vehicle_passenger" depart="63.30" from="103.0" to="139.0"/>
    <trip id="vehicle215" type="vehicle_passenger" depart="64.50" from="838.0" to="583.0"/>
    <trip id="vehicle216" type="vehicle_passenger" depart="64.80" from="965.0" to="761.0"/>
    <trip id="vehicle219" type="vehicle_passenger" depart="65.70" from="352.0" to="23.0"/>
    <trip id="vehicle221" type="vehicle_passenger" depart="66.30" from="838.0" to="23.0"/>
    <trip id="vehicle222" type="vehicle_passenger" depart="66.60" from="87.0" to="18.0"/>
    <trip id="vehicle226" type="vehicle_passenger" depart="67.80" from="964.0" to="908.0"/>
    <trip id="vehicle227" type="vehicle_passenger" depart="68.10" from="167.0" to="631.0"/>
    <trip id="vehicle230" type="vehicle_passenger" depart="69.00" from="46.0" to="23.0"/>
    <trip id="vehicle237" type="vehicle_passenger" depart="71.10" from="976.0" to="631.0"/>
    <trip id="vehicle239" type="vehicle_passenger" depart="71.70" from="339.0" to="18.0"/>
    <trip id="vehicle241" type="vehicle_passenger" depart="72.30" from="87.0" to="879.0"/>
    <trip id="vehicle248" type="vehicle_passenger" depart="74.40" from="87.0" to="72.0"/>
    <trip id="vehicle253" type="vehicle_passenger" depart="75.90" from="918.0" to="761.0"/>
    <trip id="vehicle255" type="vehicle_passenger" depart="76.50" from="821.0" to="18.0"/>
    <trip id="vehicle258" type="vehicle_passenger" depart="77.40" from="402.0" to="476.0"/>
    <trip id="vehicle261" type="vehicle_passenger" depart="78.30" from="821.0" to="522.0"/>
    <trip id="vehicle262" type="vehicle_passenger" depart="78.60" from="921.0" to="904.0"/>
    <trip id="vehicle267" type="vehicle_passenger" depart="80.10" from="976.0" to="761.0"/>
    <trip id="vehicle268" type="vehicle_passenger" depart="80.40" from="837.0" to="124.0"/>
    <trip id="vehicle274" type="vehicle_passenger" depart="82.20" from="352.0" to="30.0"/>
    <trip id="vehicle275" type="vehicle_passenger" depart="82.50" from="87.0" to="18.0"/>
    <trip id="vehicle276" type="vehicle_passenger" depart="82.80" from="304.0" to="311.0"/>
    <trip id="vehicle282" type="vehicle_passenger" depart="84.60" from="837.0" to="274.0"/>
    <trip id="vehicle283" type="vehicle_passenger" depart="84.90" from="821.0" to="379.0"/>
    <trip id="vehicle285" type="vehicle_passenger" depart="85.50" from="453.0" to="18.0"/>
    <trip id="vehicle286" type="vehicle_passenger" depart="85.80" from="87.0" to="227.0"/>
    <trip id="vehicle288" type="vehicle_passenger" depart="86.40" from="872.0" to="200.0"/>
    <trip id="vehicle295" type="vehicle_passenger" depart="88.50" from="103.0" to="799.0"/>
    <trip id="vehicle296" type="vehicle_passenger" depart="88.80" from="352.0" to="18.0"/>
    <trip id="vehicle297" type="vehicle_passenger" depart="89.10" from="838.0" to="612.0"/>
    <trip id="vehicle302" type="vehicle_passenger" depart="90.60" from="402.0" to="612.0"/>
    <trip id="vehicle303" type="vehicle_passenger" depart="90.90" from="87.0" to="227.0"/>
    <trip id="vehicle306" type="vehicle_passenger" depart="91.80" from="964.0" to="736.0"/>
    <trip id="vehicle307" type="vehicle_passenger" depart="92.10" from="176.0" to="670.0"/>
    <trip id="vehicle309" type="vehicle_passenger" depart="92.70" from="765.0" to="23.0"/>
    <trip id="vehicle316" type="vehicle_passenger" depart="94.80" from="821.0" to="799.0"/>
    <trip id="vehicle317" type="vehicle_passenger" depart="95.10" from="87.0" to="476.0"/>
    <trip id="vehicle321" type="vehicle_passenger" depart="96.30" from="885.0" to="139.0"/>
    <trip id="vehicle323" type="vehicle_passenger" depart="96.90" from="352.0" to="670.0"/>
    <trip id="vehicle325" type="vehicle_passenger" depart="97.50" from="558.0" to="807.0"/>
    <trip id="vehicle327" type="vehicle_passenger" depart="98.10" from="885.0" to="807.0"/>
    <trip id="vehicle328" type="vehicle_passenger" depart="98.40" from="765.0" to="18.0"/>
    <trip id="vehicle329" type="vehicle_passenger" depart="98.70" from="838.0" to="861.0"/>
    <trip id="vehicle330" type="vehicle_passenger" depart="99.00" from="35.0" to="18.0"/>
    <trip id="vehicle331" type="vehicle_passenger" depart="99.30" from="73.0" to="18.0"/>
    <trip id="vehicle334" type="vehicle_passenger" depart="100.20" from="613.0" to="761.0"/>
    <trip id="vehicle337" type="vehicle_passenger" depart="101.10" from="575.0" to="23.0"/>
    <trip id="vehicle339" type="vehicle_passenger" depart="101.70" from="945.0" to="32.0"/>
    <trip id="vehicle342" type="vehicle_passenger" depart="102.60" from="231.0" to="567.0"/>
    <trip id="vehicle344" type="vehicle_passenger" depart="103.20" from="231.0" to="691.0"/>
    <trip id="vehicle345" type="vehicle_passenger" depart="103.50" from="87.0" to="235.0"/>
    <trip id="vehicle348" type="vehicle_passenger" depart="104.40" from="231.0" to="595.0"/>
    <trip id="vehicle351" type="vehicle_passenger" depart="105.30" from="700.0" to="37.0"/>
    <trip id="vehicle354" type="vehicle_passenger" depart="106.20" from="304.0" to="32.0"/>
    <trip id="vehicle356" type="vehicle_passenger" depart="106.80" from="167.0" to="904.0"/>
    <trip id="vehicle357" type="vehicle_passenger" depart="107.10" from="87.0" to="797.0"/>
    <trip id="vehicle358" type="vehicle_passenger" depart="107.40" from="945.0" to="125.0"/>
    <trip id="vehicle359" type="vehicle_passenger" depart="107.70" from="409.0" to="797.0"/>
    <trip id="vehicle361" type="vehicle_passenger" depart="108.30" from="872.0" to="522.0"/>
    <trip id="vehicle362" type="vehicle_passenger" depart="108.60" from="402.0" to="595.0"/>
    <trip id="vehicle367" type="vehicle_passenger" depart="110.10" from="87.0" to="583.0"/>
    <trip id="vehicle369" type="vehicle_passenger" depart="110.70" from="821.0" to="311.0"/>
    <trip id="vehicle371" type="vehicle_passenger" depart="111.30" from="87.0" to="254.0"/>
    <trip id="vehicle373" type="vehicle_passenger" depart="111.90" from="87.0" to="866.0"/>
    <trip id="vehicle375" type="vehicle_passenger" depart="112.50" from="304.0" to="412.0"/>
    <trip id="vehicle376" type="vehicle_passenger" depart="112.80" from="87.0" to="301.0"/>
    <trip id="vehicle377" type="vehicle_passenger" depart="113.10" from="575.0" to="18.0"/>
    <trip id="vehicle383" type="vehicle_passenger" depart="114.90" from="103.0" to="274.0"/>
    <trip id="vehicle384" type="vehicle_passenger" depart="115.20" from="103.0" to="567.0"/>
    <trip id="vehicle385" type="vehicle_passenger" depart="115.50" from="945.0" to="797.0"/>
    <trip id="vehicle387" type="vehicle_passenger" depart="116.10" from="527.0" to="30.0"/>
    <trip id="vehicle391" type="vehicle_passenger" depart="117.30" from="339.0" to="632.0"/>
    <trip id="vehicle397" type="vehicle_passenger" depart="119.10" from="945.0" to="544.0"/>
    <trip id="vehicle398" type="vehicle_passenger" depart="119.40" from="838.0" to="775.0"/>
    <trip id="vehicle401" type="vehicle_passenger" depart="120.30" from="116.0" to="807.0"/>
    <trip id="vehicle402" type="vehicle_passenger" depart="120.60" from="475.0" to="797.0"/>
    <trip id="vehicle405" type="vehicle_passenger" depart="121.50" from="872.0" to="418.0"/>
    <trip id="vehicle407" type="vehicle_passenger" depart="122.10" from="964.0" to="632.0"/>
    <trip id="vehicle408" type="vehicle_passenger" depart="122.40" from="87.0" to="835.0"/>
    <trip id="vehicle409" type="vehicle_passenger" depart="122.70" from="945.0" to="72.0"/>
    <trip id="vehicle414" type="vehicle_passenger" depart="124.20" from="527.0" to="544.0"/>
    <trip id="vehicle415" type="vehicle_passenger" depart="124.50" from="489.0" to="632.0"/>
    <trip id="vehicle416" type="vehicle_passenger" depart="124.80" from="918.0" to="18.0"/>
    <trip id="vehicle418" type="vehicle_passenger" depart="125.40" from="103.0" to="311.0"/>
    <trip id="vehicle420" type="vehicle_passenger" depart="126.00" from="103.0" to="797.0"/>
    <trip id="vehicle421" type="vehicle_passenger" depart="126.30" from="872.0" to="240.0"/>
    <trip id="vehicle424" type="vehicle_passenger" depart="127.20" from="103.0" to="544.0"/>
    <trip id="vehicle425" type="vehicle_passenger" depart="127.50" from="976.0" to="714.0"/>
    <trip id="vehicle427" type="vehicle_passenger" depart="128.10" from="965.0" to="894.0"/>
    <trip id="vehicle428" type="vehicle_passenger" depart="128.40" from="409.0" to="567.0"/>
    <trip id="vehicle430" type="vehicle_passenger" depart="129.00" from="453.0" to="23.0"/>
    <trip id="vehicle431" type="vehicle_passenger" depart="129.30" from="87.0" to="72.0"/>
    <trip id="vehicle432" type="vehicle_passenger" depart="129.60" from="613.0" to="736.0"/>
    <trip id="vehicle434" type="vehicle_passenger" depart="130.20" from="976.0" to="18.0"/>
    <trip id="vehicle436" type="vehicle_passenger" depart="130.80" from="558.0" to="595.0"/>
    <trip id="vehicle437" type="vehicle_passenger" depart="131.10" from="945.0" to="583.0"/>
    <trip id="vehicle438" type="vehicle_passenger" depart="131.40" from="558.0" to="30.0"/>
    <trip id="vehicle439" type="vehicle_passenger" depart="131.70" from="35.0" to="32.0"/>
    <trip id="vehicle440" type="vehicle_passenger" depart="132.00" from="352.0" to="37.0"/>
    <trip id="vehicle441" type="vehicle_passenger" depart="132.30" from="453.0" to="583.0"/>
    <trip id="vehicle444" type="vehicle_passenger" depart="133.20" from="872.0" to="631.0"/>
    <trip id="vehicle448" type="vehicle_passenger" depart="134.40" from="558.0" to="807.0"/>
    <trip id="vehicle449" type="vehicle_passenger" depart="134.70" from="837.0" to="702.0"/>
    <trip id="vehicle451" type="vehicle_passenger" depart="135.30" from="951.0" to="18.0"/>
    <trip id="vehicle452" type="vehicle_passenger" depart="135.60" from="475.0" to="733.0"/>
    <trip id="vehicle453" type="vehicle_passenger" depart="135.90" from="945.0" to="274.0"/>
    <trip id="vehicle458" type="vehicle_passenger" depart="137.40" from="475.0" to="41.0"/>
    <trip id="vehicle459" type="vehicle_passenger" depart="137.70" from="837.0" to="714.0"/>
    <trip id="vehicle461" type="vehicle_passenger" depart="138.30" from="527.0" to="583.0"/>
    <trip id="vehicle466" type="vehicle_passenger" depart="139.80" from="837.0" to="235.0"/>
    <trip id="vehicle472" type="vehicle_passenger" depart="141.60" from="945.0" to="563.0"/>
    <trip id="vehicle474" type="vehicle_passenger" depart="142.20" from="964.0" to="714.0"/>
    <trip id="vehicle477" type="vehicle_passenger" depart="143.10" from="87.0" to="30.0"/>
    <trip id="vehicle482" type="vehicle_passenger" depart="144.60" from="921.0" to="736.0"/>
    <trip id="vehicle483" type="vehicle_passenger" depart="144.90" from="921.0" to="904.0"/>
    <trip id="vehicle486" type="vehicle_passenger" depart="145.80" from="87.0" to="557.0"/>
    <trip id="vehicle488" type="vehicle_passenger" depart="146.40" from="87.0" to="904.0"/>
    <trip id="vehicle492" type="vehicle_passenger" depart="147.60" from="964.0" to="904.0"/>
    <trip id="vehicle493" type="vehicle_passenger" depart="147.90" from="87.0" to="361.0"/>
    <trip id="vehicle494" type="vehicle_passenger" depart="148.20" from="976.0" to="904.0"/>
    <trip id="vehicle499" type="vehicle_passenger" depart="149.70" from="475.0" to="691.0"/>
    <trip id="vehicle501" type="vehicle_passenger" depart="150.30" from="87.0" to="361.0"/>
    <trip id="vehicle502" type="vehicle_passenger" depart="150.60" from="838.0" to="23.0"/>
    <trip id="vehicle504" type="vehicle_passenger" depart="151.20" from="87.0" to="807.0"/>
    <trip id="vehicle506" type="vehicle_passenger" depart="151.80" from="35.0" to="37.0"/>
    <trip id="vehicle511" type="vehicle_passenger" depart="153.30" from="527.0" to="807.0"/>
    <trip id="vehicle513" type="vehicle_passenger" depart="153.90" from="103.0" to="32.0"/>
    <trip id="vehicle516" type="vehicle_passenger" depart="154.80" from="402.0" to="894.0"/>
    <trip id="vehicle518" type="vehicle_passenger" depart="155.40" from="304.0" to="32.0"/>
    <trip id="vehicle520" type="vehicle_passenger" depart="156.00" from="371.0" to="37.0"/>
    <trip id="vehicle521" type="vehicle_passenger" depart="156.30" from="103.0" to="563.0"/>
    <trip id="vehicle523" type="vehicle_passenger" depart="156.90" from="527.0" to="761.0"/>
    <trip id="vehicle525" type="vehicle_passenger" depart="157.50" from="821.0" to="37.0"/>
    <trip id="vehicle527" type="vehicle_passenger" depart="158.10" from="402.0" to="595.0"/>
    <trip id="vehicle528" type="vehicle_passenger" depart="158.40" from="575.0" to="583.0"/>
    <trip id="vehicle529" type="vehicle_passenger" depart="158.70" from="28.0" to="18.0"/>
    <trip id="vehicle530" type="vehicle_passenger" depart="159.00" from="527.0" to="18.0"/>
    <trip id="vehicle531" type="vehicle_passenger" depart="159.30" from="87.0" to="595.0"/>
    <trip id="vehicle532" type="vehicle_passenger" depart="159.60" from="103.0" to="227.0"/>
    <trip id="vehicle533" type="vehicle_passenger" depart="159.90" from="87.0" to="557.0"/>
    <trip id="vehicle537" type="vehicle_passenger" depart="161.10" from="436.0" to="37.0"/>
    <trip id="vehicle538" type="vehicle_passenger" depart="161.40" from="103.0" to="37.0"/>
    <trip id="vehicle539" type="vehicle_passenger" depart="161.70" from="35.0" to="37.0"/>
    <trip id="vehicle541" type="vehicle_passenger" depart="162.30" from="872.0" to="544.0"/>
    <trip id="vehicle545" type="vehicle_passenger" depart="163.50" from="921.0" to="18.0"/>
    <trip id="vehicle547" type="vehicle_passenger" depart="164.10" from="28.0" to="18.0"/>
    <trip id="vehicle550" type="vehicle_passenger" depart="165.00" from="765.0" to="37.0"/>
    <trip id="vehicle553" type="vehicle_passenger" depart="165.90" from="371.0" to="557.0"/>
    <trip id="vehicle558" type="vehicle_passenger" depart="167.40" from="87.0" to="835.0"/>
    <trip id="vehicle563" type="vehicle_passenger" depart="168.90" from="475.0" to="18.0"/>
    <trip id="vehicle566" type="vehicle_passenger" depart="169.80" from="87.0" to="32.0"/>
    <trip id="vehicle567" type="vehicle_passenger" depart="170.10" from="87.0" to="840.0"/>
    <trip id="vehicle569" type="vehicle_passenger" depart="170.70" from="87.0" to="460.0"/>
    <trip id="vehicle573" type="vehicle_passenger" depart="171.90" from="352.0" to="691.0"/>
    <trip id="vehicle574" type="vehicle_passenger" depart="172.20" from="87.0" to="331.0"/>
    <trip id="vehicle576" type="vehicle_passenger" depart="172.80" from="402.0" to="72.0"/>
    <trip id="vehicle577" type="vehicle_passenger" depart="173.10" from="87.0" to="807.0"/>
    <trip id="vehicle579" type="vehicle_passenger" depart="173.70" from="352.0" to="563.0"/>
    <trip id="vehicle581" type="vehicle_passenger" depart="174.30" from="838.0" to="908.0"/>
    <trip id="vehicle582" type="vehicle_passenger" depart="174.60" from="921.0" to="904.0"/>
    <trip id="vehicle586" type="vehicle_passenger" depart="175.80" from="965.0" to="736.0"/>
    <trip id="vehicle587" type="vehicle_passenger" depart="176.10" from="87.0" to="178.0"/>
    <trip id="vehicle588" type="vehicle_passenger" depart="176.40" from="231.0" to="894.0"/>
    <trip id="vehicle589" type="vehicle_passenger" depart="176.70" from="558.0" to="904.0"/>
    <trip id="vehicle590" type="vehicle_passenger" depart="177.00" from="231.0" to="412.0"/>
    <trip id="vehicle592" type="vehicle_passenger" depart="177.60" from="87.0" to="595.0"/>
    <trip id="vehicle594" type="vehicle_passenger" depart="178.20" from="87.0" to="835.0"/>
    <trip id="vehicle595" type="vehicle_passenger" depart="178.50" from="527.0" to="37.0"/>
    <trip id="vehicle598" type="vehicle_passenger" depart="179.40" from="409.0" to="772.0"/>
    <trip id="vehicle600" type="vehicle_passenger" depart="180.00" from="304.0" to="583.0"/>
    <trip id="vehicle601" type="vehicle_passenger" depart="180.30" from="453.0" to="32.0"/>
    <trip id="vehicle604" type="vehicle_passenger" depart="181.20" from="765.0" to="761.0"/>
    <trip id="vehicle605" type="vehicle_passenger" depart="181.50" from="87.0" to="501.0"/>
    <trip id="vehicle606" type="vehicle_passenger" depart="181.80" from="613.0" to="18.0"/>
    <trip id="vehicle607" type="vehicle_passenger" depart="182.10" from="409.0" to="23.0"/>
    <trip id="vehicle612" type="vehicle_passenger" depart="183.60" from="276.0" to="631.0"/>
    <trip id="vehicle613" type="vehicle_passenger" depart="183.90" from="838.0" to="278.0"/>
    <trip id="vehicle616" type="vehicle_passenger" depart="184.80" from="167.0" to="18.0"/>
    <trip id="vehicle617" type="vehicle_passenger" depart="185.10" from="885.0" to="125.0"/>
    <trip id="vehicle620" type="vehicle_passenger" depart="186.00" from="837.0" to="379.0"/>
    <trip id="vehicle621" type="vehicle_passenger" depart="186.30" from="371.0" to="30.0"/>
    <trip id="vehicle626" type="vehicle_passenger" depart="187.80" from="176.0" to="263.0"/>
    <trip id="vehicle627" type="vehicle_passenger" depart="188.10" from="945.0" to="274.0"/>
    <trip id="vehicle634" type="vehicle_passenger" depart="190.20" from="976.0" to="23.0"/>
    <trip id="vehicle636" type="vehicle_passenger" depart="190.80" from="176.0" to="301.0"/>
    <trip id="vehicle638" type="vehicle_passenger" depart="191.40" from="821.0" to="18.0"/>
    <trip id="vehicle639" type="vehicle_passenger" depart="191.70" from="945.0" to="37.0"/>
    <trip id="vehicle641" type="vehicle_passenger" depart="192.30" from="821.0" to="761.0"/>
    <trip id="vehicle642" type="vehicle_passenger" depart="192.60" from="527.0" to="544.0"/>
    <trip id="vehicle646" type="vehicle_passenger" depart="193.80" from="821.0" to="632.0"/>
    <trip id="vehicle647" type="vehicle_passenger" depart="194.10" from="527.0" to="41.0"/>
    <trip id="vehicle649" type="vehicle_passenger" depart="194.70" from="475.0" to="631.0"/>
    <trip id="vehicle650" type="vehicle_passenger" depart="195.00" from="304.0" to="799.0"/>
    <trip id="vehicle651" type="vehicle_passenger" depart="195.30" from="615.0" to="32.0"/>
    <trip id="vehicle658" type="vehicle_passenger" depart="197.40" from="765.0" to="23.0"/>
    <trip id="vehicle672" type="vehicle_passenger" depart="201.60" from="885.0" to="200.0"/>
    <trip id="vehicle674" type="vehicle_passenger" depart="202.20" from="402.0" to="18.0"/>
    <trip id="vehicle675" type="vehicle_passenger" depart="202.50" from="167.0" to="557.0"/>
    <trip id="vehicle677" type="vehicle_passenger" depart="203.10" from="87.0" to="139.0"/>
    <trip id="vehicle678" type="vehicle_passenger" depart="203.40" from="87.0" to="379.0"/>
    <trip id="vehicle679" type="vehicle_passenger" depart="203.70" from="453.0" to="736.0"/>
    <trip id="vehicle683" type="vehicle_passenger" depart="204.90" from="821.0" to="37.0"/>
    <trip id="vehicle685" type="vehicle_passenger" depart="205.50" from="167.0" to="18.0"/>
    <trip id="vehicle690" type="vehicle_passenger" depart="207.00" from="613.0" to="799.0"/>
    <trip id="vehicle693" type="vehicle_passenger" depart="207.90" from="837.0" to="775.0"/>
    <trip id="vehicle694" type="vehicle_passenger" depart="208.20" from="976.0" to="736.0"/>
    <trip id="vehicle695" type="vehicle_passenger" depart="208.50" from="28.0" to="41.0"/>
    <trip id="vehicle696" type="vehicle_passenger" depart="208.80" from="87.0" to="124.0"/>
    <trip id="vehicle698" type="vehicle_passenger" depart="209.40" from="837.0" to="41.0"/>