<routes xmlns:xsi="http://www.w3.org/2001/XMLSchema-instance" xsi:noNamespaceSchemaLocation="http://sumo.dlr.de/xsd/routes_file.xsd">
    <vType id="vehicle_passenger" vClass="passenger" />
    <vType id="vehicle_truck" vClass="truck" length="10" guiShape="truck"/>
<route id="av_route" edges="448.0 439.0 451.0 445.0 447.0 443.0 441.0 442.0 811.0 812.0 461.0 466.0 458.0 459.0 455.0 456.0 457.0 462.0 merge_zone_29 464.0 474.0 472.0 477.0 473.0 479.0 480.0 471.0 478.0 486.0 496.0" /><vehicle id="vehicle13" type="vehicle_passenger" depart="3.90">
        <route edges="603.0 599.0 598.0 578.0 604.0 630.0 621.0" />
    </vehicle>
    <vehicle id="vehicle35" type="vehicle_passenger" depart="10.50">
        <route edges="484.0 490.0 494.0 499.0 507.0 492.0 495.0 498.0 506.0 485.0 505.0 merge_zone_31 502.0 504.0 488.0 513.0 525.0 536.0 529.0" />
    </vehicle>
    <vehicle id="vehicle42" type="vehicle_passenger" depart="12.60">
        <route edges="594.0" />
    </vehicle>
    <vehicle id="vehicle47" type="vehicle_passenger" depart="14.10">
        <route edges="371.0 374.0 merge_zone_25 373.0 383.0 384.0 385.0 388.0 398.0" />
    </vehicle>
    <vehicle id="vehicle63" type="vehicle_passenger" depart="18.90">
        <route edges="575.0 579.0 595.0" />
    </vehicle>
    <vehicle id="vehicle70" type="vehicle_passenger" depart="21.00">
        <route edges="609.0 584.0 576.0" />
    </vehicle>
    <vehicle id="vehicle80" type="vehicle_passenger" depart="24.00">
        <route edges="393.0 401.0 395.0 407.0 410.0" />
    </vehicle>
    <vehicle id="vehicle132" type="vehicle_passenger" depart="39.60">
        <route edges="582.0 808.0 586.0 573.0 588.0 580.0 581.0" />
    </vehicle>
    <vehicle id="vehicle147" type="vehicle_passenger" depart="44.10">
        <route edges="393.0 401.0 395.0 407.0 410.0" />
    </vehicle>
    <vehicle id="vehicle151" type="vehicle_passenger" depart="45.30">
        <route edges="582.0 808.0 586.0 573.0 588.0 580.0 581.0" />
    </vehicle>
    <vehicle id="vehicle161" type="vehicle_passenger" depart="48.30">
        <route edges="543.0 548.0 568.0 566.0 562.0 560.0 565.0 561.0 607.0 585.0 574.0 615.0 591.0 600.0 579.0 602.0 597.0 593.0" />
    </vehicle>
    <vehicle id="vehicle183" type="vehicle_passenger" depart="54.90">
        <route edges="594.0" />
    </vehicle>
    <vehicle id="vehicle271" type="vehicle_passenger" depart="81.30">
        <route edges="575.0 579.0 602.0 597.0 593.0" />
    </vehicle>
    <vehicle id="vehicle279" type="vehicle_passenger" depart="83.70">
        <route edges="587.0 611.0" />
    </vehicle>
    <vehicle id="vehicle282" type="vehicle_passenger" depart="84.60">
        <route edges="393.0 401.0 395.0 407.0 410.0" />
    </vehicle>
    <vehicle id="vehicle351" type="vehicle_passenger" depart="105.30">
        <route edges="484.0 490.0 494.0 499.0 507.0 492.0 495.0 498.0 506.0 485.0 505.0 merge_zone_31 502.0 504.0 488.0 513.0 525.0 536.0 529.0" />
    </vehicle>
    <vehicle id="vehicle386" type="vehicle_passenger" depart="115.80">
        <route edges="582.0 808.0 586.0 573.0 588.0 580.0 581.0" />
    </vehicle>
    <vehicle id="vehicle436" type="vehicle_passenger" depart="130.80">
        <route edges="352.0 merge_zone_24 348.0 366.0 372.0 365.0 367.0 362.0 370.0 363.0 364.0" />
    </vehicle>
    <vehicle id="vehicle451" type="vehicle_passenger" depart="135.30">
        <route edges="371.0 374.0 merge_zone_25 373.0 383.0 384.0 385.0 396.0 390.0 386.0 391.0" />
    </vehicle>
    <vehicle id="vehicle460" type="vehicle_passenger" depart="138.00">
        <route edges="577.0 593.0" />
    </vehicle>
    <vehicle id="vehicle468" type="vehicle_passenger" depart="140.40">
        <route edges="523.0 518.0 merge_zone_32 532.0 531.0 535.0 519.0 524.0 512.0 517.0 516.0 521.0 545.0 554.0 541.0 546.0 550.0 556.0 547.0 552.0 549.0 544.0" />
    </vehicle>
    <vehicle id="vehicle479" type="vehicle_passenger" depart="143.70">
        <route edges="603.0 599.0 598.0 578.0 604.0 630.0 621.0" />
    </vehicle>
    <vehicle id="vehicle480" type="vehicle_passenger" depart="144.00">
        <route edges="807.0 586.0 573.0 588.0 580.0 581.0" />
    </vehicle>
    <vehicle id="vehicle494" type="vehicle_passenger" depart="148.20">
        <route edges="493.0 500.0 487.0 491.0" />
    </vehicle>
    <vehicle id="vehicle521" type="vehicle_passenger" depart="156.30">
        <route edges="440.0 448.0 439.0 451.0 445.0 447.0 443.0 441.0 442.0 811.0 812.0 461.0 466.0 458.0 459.0 455.0 456.0 457.0 462.0 merge_zone_29 464.0 474.0 472.0 477.0 473.0 479.0 480.0 471.0 478.0 486.0 496.0" />
    </vehicle>
    <vehicle id="vehicle530" type="vehicle_passenger" depart="159.00">
        <route edges="577.0 593.0" />
    </vehicle>
    <vehicle id="vehicle540" type="vehicle_passenger" depart="162.00">
        <route edges="400.0 389.0 392.0 387.0" />
    </vehicle>
    <vehicle id="vehicle554" type="vehicle_passenger" depart="166.20">
        <route edges="393.0 401.0 395.0 407.0 410.0" />
    </vehicle>
    <vehicle id="vehicle597" type="vehicle_passenger" depart="179.10">
        <route edges="523.0 518.0 merge_zone_32 532.0 531.0 535.0 519.0 524.0 512.0 517.0 516.0 521.0 545.0 554.0 541.0 546.0 550.0 556.0 557.0" />
    </vehicle>
    <vehicle id="vehicle617" type="vehicle_passenger" depart="185.10">
        <route edges="609.0 584.0 576.0" />
    </vehicle>
    <vehicle id="vehicle632" type="vehicle_passenger" depart="189.60">
        <route edges="577.0 593.0" />
    </vehicle>
    <vehicle id="vehicle674" type="vehicle_passenger" depart="202.20">
        <route edges="807.0 586.0 573.0 588.0 580.0 581.0" />
    </vehicle>
    <vehicle id="vehicle690" type="vehicle_passenger" depart="207.00">
        <route edges="475.0 483.0 478.0 486.0 496.0" />
    </vehicle>
    <vehicle id="vehicle693" type="vehicle_passenger" depart="207.90">
        <route edges="453.0 merge_zone_29 464.0 474.0 472.0 477.0 473.0 479.0 480.0 471.0 478.0 486.0 496.0" />
    </vehicle>
    <vehicle id="vehicle714" type="vehicle_passenger" depart="214.20">
        <route edges="523.0 518.0 merge_zone_32 532.0 531.0 535.0 519.0 524.0 512.0 517.0 516.0 521.0 545.0 554.0 541.0 546.0 550.0 556.0 547.0 552.0 549.0 544.0" />
    </vehicle>
    <vehicle id="vehicle719" type="vehicle_passenger" depart="215.70">
        <route edges="440.0 448.0 439.0 451.0 445.0 447.0 443.0 441.0 442.0 811.0 812.0 461.0 466.0 458.0 459.0 455.0 456.0 457.0 462.0 merge_zone_29 464.0 474.0 472.0 477.0 473.0 479.0 480.0 471.0 478.0 486.0 496.0" />
    </vehicle>
    <vehicle id="vehicle724" type="vehicle_passenger" depart="217.20">
        <route edges="807.0 586.0 573.0 588.0 580.0 581.0" />
    </vehicle>
    <vehicle id="vehicle748" type="vehicle_passenger" depart="224.40">
        <route edges="577.0 593.0" />
    </vehicle>
    <vehicle id="vehicle776" type="vehicle_passenger" depart="232.80">
        <route edges="577.0 593.0" />
    </vehicle>
    <vehicle id="vehicle809" type="vehicle_passenger" depart="242.70">
        <route edges="587.0 611.0" />
    </vehicle>
    <vehicle id="vehicle811" type="vehicle_passenger" depart="243.30">
        <route edges="543.0 548.0 568.0 566.0 562.0 560.0 565.0 561.0 607.0 585.0 574.0 615.0 591.0 600.0 579.0 602.0 597.0 593.0" />
    </vehicle>
    <vehicle id="vehicle842" type="vehicle_passenger" depart="252.60">
        <route edges="587.0 611.0" />
    </vehicle>
    <vehicle id="vehicle853" type="vehicle_passenger" depart="255.90">
        <route edges="453.0 merge_zone_29 464.0 474.0 472.0 477.0 473.0 479.0 480.0 471.0 478.0 486.0 496.0" />
    </vehicle>
    <vehicle id="vehicle854" type="vehicle_passenger" depart="256.20">
        <route edges="453.0 merge_zone_29 464.0 468.0 476.0" />
    </vehicle>
    <vehicle id="vehicle875" type="vehicle_passenger" depart="262.50">
        <route edges="409.0 405.0 434.0 425.0 420.0 431.0 428.0 418.0" />
    </vehicle>
    <vehicle id="vehicle881" type="vehicle_passenger" depart="264.30">
        <route edges="345.0 350.0 343.0 349.0 346.0 merge_zone_24 348.0 366.0 372.0 365.0 367.0 362.0 370.0 363.0 364.0" />
    </vehicle>
    <vehicle id="vehicle891" type="vehicle_passenger" depart="267.30">
        <route edges="587.0 611.0" />
    </vehicle>
    <vehicle id="vehicle913" type="vehicle_passenger" depart="273.90">
        <route edges="393.0 401.0 395.0 412.0" />
    </vehicle>
    <vehicle id="vehicle935" type="vehicle_passenger" depart="280.50">
        <route edges="533.0 515.0 528.0" />
    </vehicle>
    <vehicle id="vehicle942" type="vehicle_passenger" depart="282.60">
        <route edges="400.0 389.0 392.0 387.0" />
    </vehicle>
    <vehicle id="vehicle962" type="vehicle_passenger" depart="288.60">
        <route edges="587.0 611.0" />
    </vehicle>
    <vehicle id="vehicle970" type="vehicle_passenger" depart="291.00">
        <route edges="493.0 500.0 487.0 491.0" />
    </vehicle>
    <vehicle id="vehicle980" type="vehicle_passenger" depart="294.00">
        <route edges="440.0 448.0 439.0 451.0 445.0 447.0 443.0 441.0 442.0 811.0 812.0 461.0 466.0 458.0 459.0 455.0 456.0 457.0 462.0 merge_zone_29 464.0 474.0 472.0 477.0 473.0 479.0 480.0 471.0 478.0 486.0 496.0" />
    </vehicle>
    <vehicle id="vehicle983" type="vehicle_passenger" depart="294.90">
        <route edges="402.0 392.0 387.0" />
    </vehicle>
    <vehicle id="vehicle1003" type="vehicle_passenger" depart="300.90">
        <route edges="393.0 401.0 395.0 407.0 410.0" />
    </vehicle>
    <vehicle id="vehicle1017" type="vehicle_passenger" depart="305.10">
        <route edges="400.0 389.0 392.0 387.0" />
    </vehicle>
    <vehicle id="vehicle1035" type="vehicle_passenger" depart="310.50">
        <route edges="594.0" />
    </vehicle>
    <vehicle id="vehicle1048" type="vehicle_passenger" depart="314.40">
        <route edges="393.0 401.0 395.0 407.0 410.0" />
    </vehicle>
    <vehicle id="vehicle1054" type="vehicle_passenger" depart="316.20">
        <route edges="493.0 500.0 487.0 491.0" />
    </vehicle>
    <vehicle id="vehicle1089" type="vehicle_passenger" depart="326.70">
        <route edges="523.0 518.0 merge_zone_32 532.0 531.0 535.0 519.0 524.0 512.0 517.0 516.0 521.0 545.0 554.0 541.0 546.0 550.0 556.0 557.0" />
    </vehicle>
    <vehicle id="vehicle1093" type="vehicle_passenger" depart="327.90">
        <route edges="345.0 350.0 343.0 349.0 346.0 merge_zone_24 348.0 366.0 372.0 365.0 367.0 362.0 370.0 363.0 364.0" />
    </vehicle>
    <vehicle id="vehicle1125" type="vehicle_passenger" depart="337.50">
        <route edges="594.0" />
    </vehicle>
    <vehicle id="vehicle1173" type="vehicle_passenger" depart="351.90">
        <route edges="587.0 611.0" />
    </vehicle>
    <vehicle id="vehicle1181" type="vehicle_passenger" depart="354.30">
        <route edges="400.0 389.0 392.0 387.0" />
    </vehicle>
    <vehicle id="vehicle1194" type="vehicle_passenger" depart="358.20">
        <route edges="533.0 515.0 514.0 526.0 539.0 530.0" />
    </vehicle>
    <vehicle id="vehicle1214" type="vehicle_passenger" depart="364.20">
        <route edges="594.0" />
    </vehicle>
    <vehicle id="vehicle1227" type="vehicle_passenger" depart="368.10">
        <route edges="385.0 396.0 390.0 386.0 391.0" />
    </vehicle>
    <vehicle id="vehicle1239" type="vehicle_passenger" depart="371.70">
        <route edges="577.0 593.0" />
    </vehicle>
    <vehicle id="vehicle1307" type="vehicle_passenger" depart="392.10">
        <route edges="533.0 515.0 514.0 526.0 539.0 530.0" />
    </vehicle>
    <vehicle id="vehicle1311" type="vehicle_passenger" depart="393.30">
        <route edges="582.0 808.0 586.0 573.0 588.0 580.0 581.0" />
    </vehicle>
    <vehicle id="vehicle1316" type="vehicle_passenger" depart="394.80">
        <route edges="594.0" />
    </vehicle>
    <vehicle id="vehicle1320" type="vehicle_passenger" depart="396.00">
        <route edges="582.0 808.0 586.0 573.0 588.0 580.0 581.0" />
    </vehicle>
    <vehicle id="vehicle1352" type="vehicle_passenger" depart="405.60">
        <route edges="587.0 611.0" />
    </vehicle>
    <vehicle id="vehicle1361" type="vehicle_passenger" depart="408.30">
        <route edges="807.0 586.0 573.0 588.0 580.0 581.0" />
    </vehicle>
    <vehicle id="vehicle1384" type="vehicle_passenger" depart="415.20">
        <route edges="440.0 448.0 439.0 451.0 445.0 447.0 443.0 441.0 442.0 811.0 812.0 461.0 466.0 458.0 459.0 455.0 456.0 457.0 462.0 merge_zone_29 464.0 474.0 472.0 477.0 473.0 479.0 480.0 471.0 478.0 486.0 496.0" />
    </vehicle>
    <vehicle id="vehicle1400" type="vehicle_passenger" depart="420.00">
        <route edges="587.0 611.0" />
    </vehicle>
    <vehicle id="vehicle1405" type="vehicle_passenger" depart="421.50">
        <route edges="577.0 593.0" />
    </vehicle>
    <vehicle id="vehicle1424" type="vehicle_passenger" depart="427.20">
        <route edges="587.0 611.0" />
    </vehicle>
    <vehicle id="vehicle1437" type="vehicle_passenger" depart="431.10">
        <route edges="807.0 586.0 573.0 588.0 580.0 581.0" />
    </vehicle>
    <vehicle id="vehicle1456" type="vehicle_passenger" depart="436.80">
        <route edges="393.0 401.0 395.0 407.0 410.0" />
    </vehicle>
    <vehicle id="vehicle1589" type="vehicle_passenger" depart="476.70">
        <route edges="582.0 808.0 586.0 573.0 588.0 580.0 581.0" />
    </vehicle>
    <vehicle id="vehicle1606" type="vehicle_passenger" depart="481.80">
        <route edges="453.0 merge_zone_29 464.0 474.0 472.0 477.0 473.0 479.0 480.0 471.0 478.0 486.0 496.0" />
    </vehicle>
    <vehicle id="vehicle1616" type="vehicle_passenger" depart="484.80">
        <route edges="577.0 593.0" />
    </vehicle>
    <vehicle id="vehicle1629" type="vehicle_passenger" depart="488.70">
        <route edges="603.0 599.0 598.0 578.0 604.0 630.0 621.0" />
    </vehicle>
    <vehicle id="vehicle1635" type="vehicle_passenger" depart="490.50">
        <route edges="587.0 611.0" />
    </vehicle>
    <vehicle id="vehicle1664" type="vehicle_passenger" depart="499.20">
        <route edges="609.0 584.0 576.0" />
    </vehicle>
    <vehicle id="vehicle1672" type="vehicle_passenger" depart="501.60">
        <route edges="543.0 548.0 568.0 566.0 562.0 560.0 565.0 561.0 607.0 585.0 574.0 615.0 591.0 600.0 579.0 595.0" />
    </vehicle>
    <vehicle id="vehicle1673" type="vehicle_passenger" depart="501.90">
        <route edges="533.0 515.0 514.0 526.0 539.0 530.0" />
    </vehicle>
    <vehicle id="vehicle1684" type="vehicle_passenger" depart="505.20">
        <route edges="582.0 808.0 586.0 573.0 588.0 580.0 581.0" />
    </vehicle>
    <vehicle id="vehicle1716" type="vehicle_passenger" depart="514.80">
        <route edges="543.0 548.0 568.0 566.0 562.0 560.0 565.0 561.0 607.0 585.0 574.0 615.0 591.0 600.0 579.0 602.0 597.0 593.0" />
    </vehicle>
    <vehicle id="vehicle1732" type="vehicle_passenger" depart="519.60">
        <route edges="582.0 808.0 586.0 573.0 588.0 580.0 581.0" />
    </vehicle>
    <vehicle id="vehicle1759" type="vehicle_passenger" depart="527.70">
        <route edges="400.0 389.0 392.0 387.0" />
    </vehicle>
    <vehicle id="vehicle1782" type="vehicle_passenger" depart="534.60">
        <route edges="371.0 374.0 merge_zone_25 373.0 383.0 384.0 385.0 396.0 390.0 386.0 391.0" />
    </vehicle>
    <vehicle id="vehicle1800" type="vehicle_passenger" depart="540.00">
        <route edges="582.0 808.0 586.0 573.0 588.0 580.0 581.0" />
    </vehicle>
    <vehicle id="vehicle1805" type="vehicle_passenger" depart="541.50">
        <route edges="409.0 405.0" />
    </vehicle>
    <vehicle id="vehicle1806" type="vehicle_passenger" depart="541.80">
        <route edges="609.0 584.0 576.0" />
    </vehicle>
    <vehicle id="vehicle1815" type="vehicle_passenger" depart="544.50">
        <route edges="377.0 375.0 368.0 382.0 merge_zone_25 373.0 383.0 384.0 385.0 396.0 390.0 386.0 391.0" />
    </vehicle>
    <vehicle id="vehicle1867" type="vehicle_passenger" depart="560.10">
        <route edges="406.0" />
    </vehicle>
    <vehicle id="vehicle1878" type="vehicle_passenger" depart="563.40">
        <route edges="543.0 548.0 568.0 566.0 562.0 560.0 565.0 561.0 607.0 585.0 574.0 615.0 591.0 600.0 579.0 602.0 597.0 593.0" />
    </vehicle>
    <vehicle id="vehicle1889" type="vehicle_passenger" depart="566.70">
        <route edges="371.0 374.0 merge_zone_25 373.0 383.0 384.0 385.0 396.0 390.0 386.0 391.0" />
    </vehicle>
    <vehicle id="vehicle1910" type="vehicle_passenger" depart="573.00">
        <route edges="558.0 560.0 565.0 561.0 607.0 585.0 574.0 615.0 591.0 600.0 579.0 595.0" />
    </vehicle>
    <vehicle id="vehicle1925" type="vehicle_passenger" depart="577.50">
        <route edges="543.0 548.0 568.0 566.0 562.0 560.0 563.0" />
    </vehicle>
    <vehicle id="vehicle1962" type="vehicle_passenger" depart="588.60">
        <route edges="345.0 350.0 343.0 349.0 346.0 merge_zone_24 348.0 366.0 372.0 365.0 367.0 362.0 370.0 380.0 379.0" />
    </vehicle>
    <vehicle id="vehicle2029" type="vehicle_passenger" depart="608.70">
        <route edges="533.0 515.0 528.0" />
    </vehicle>
    <vehicle id="vehicle2050" type="vehicle_passenger" depart="615.00">
        <route edges="577.0 593.0" />
    </vehicle>
    <vehicle id="vehicle2062" type="vehicle_passenger" depart="618.60">
        <route edges="609.0 584.0 576.0" />
    </vehicle>
    <vehicle id="vehicle2066" type="vehicle_passenger" depart="619.80">
        <route edges="807.0 586.0 573.0 588.0 580.0 581.0" />
    </vehicle>
    <vehicle id="vehicle2085" type="vehicle_passenger" depart="625.50">
        <route edges="577.0 593.0" />
    </vehicle>
    <vehicle id="vehicle2108" type="vehicle_passenger" depart="632.40">
        <route edges="582.0 808.0 586.0 573.0 588.0 580.0 581.0" />
    </vehicle>
    <vehicle id="vehicle2128" type="vehicle_passenger" depart="638.40">
        <route edges="345.0 350.0 343.0 349.0 346.0 merge_zone_24 348.0 366.0 372.0 365.0 367.0 362.0 370.0 380.0 379.0" />
    </vehicle>
    <vehicle id="vehicle2129" type="vehicle_passenger" depart="638.70">
        <route edges="393.0 401.0 395.0 407.0 410.0" />
    </vehicle>
    <vehicle id="vehicle2142" type="vehicle_passenger" depart="642.60">
        <route edges="582.0 808.0 586.0 573.0 588.0 580.0 581.0" />
    </vehicle>
    <vehicle id="vehicle2163" type="vehicle_passenger" depart="648.90">
        <route edges="484.0 490.0 494.0 499.0 507.0 492.0 495.0 498.0 506.0 485.0 505.0 merge_zone_31 502.0 504.0 488.0 513.0 525.0 536.0 529.0" />
    </vehicle>
    <vehicle id="vehicle2168" type="vehicle_passenger" depart="650.40">
        <route edges="453.0 merge_zone_29 464.0 474.0 472.0 477.0 473.0 479.0 480.0 471.0 478.0 486.0 496.0" />
    </vehicle>
    <vehicle id="vehicle2204" type="vehicle_passenger" depart="661.20">
        <route edges="603.0 599.0 598.0 578.0 583.0" />
    </vehicle>
    <vehicle id="vehicle2211" type="vehicle_passenger" depart="663.30">
        <route edges="603.0 599.0 598.0 578.0 583.0" />
    </vehicle>
    <vehicle id="vehicle2228" type="vehicle_passenger" depart="668.40">
        <route edges="352.0 merge_zone_24 348.0 366.0 372.0 365.0 367.0 362.0 370.0 363.0 364.0" />
    </vehicle>
    <vehicle id="vehicle2233" type="vehicle_passenger" depart="669.90">
        <route edges="609.0 584.0 576.0" />
    </vehicle>
    <vehicle id="vehicle2240" type="vehicle_passenger" depart="672.00">
        <route edges="400.0 389.0 392.0 387.0" />
    </vehicle>
    <vehicle id="vehicle2243" type="vehicle_passenger" depart="672.90">
        <route edges="577.0 593.0" />
    </vehicle>
    <vehicle id="vehicle2264" type="vehicle_passenger" depart="679.20">
        <route edges="400.0 389.0 392.0 387.0" />
    </vehicle>
    <vehicle id="vehicle2321" type="vehicle_passenger" depart="696.30">
        <route edges="345.0 350.0 343.0 349.0 346.0 merge_zone_24 348.0 366.0 372.0 365.0 367.0 362.0 370.0 363.0 364.0" />
    </vehicle>
    <vehicle id="vehicle2355" type="vehicle_passenger" depart="706.50">
        <route edges="582.0 808.0 586.0 573.0 588.0 580.0 581.0" />
    </vehicle>
    <vehicle id="vehicle2389" type="vehicle_passenger" depart="716.70">
        <route edges="577.0 593.0" />
    </vehicle>
    <vehicle id="vehicle2464" type="vehicle_passenger" depart="739.20">
        <route edges="484.0 490.0 494.0 499.0 507.0 492.0 495.0 498.0 506.0 485.0 505.0 merge_zone_31 502.0 504.0 488.0 513.0 525.0 536.0 529.0" />
    </vehicle>
    <vehicle id="vehicle2470" type="vehicle_passenger" depart="741.00">
        <route edges="587.0 611.0" />
    </vehicle>
    <vehicle id="vehicle2473" type="vehicle_passenger" depart="741.90">
        <route edges="575.0 579.0 602.0 597.0 593.0" />
    </vehicle>
    <vehicle id="vehicle2474" type="vehicle_passenger" depart="742.20">
        <route edges="807.0 586.0 573.0 588.0 580.0 581.0" />
    </vehicle>
    <vehicle id="vehicle2479" type="vehicle_passenger" depart="743.70">
        <route edges="577.0 593.0" />
    </vehicle>
    <vehicle id="vehicle2516" type="vehicle_passenger" depart="754.80">
        <route edges="609.0 584.0 576.0" />
    </vehicle>
    <vehicle id="vehicle2565" type="vehicle_passenger" depart="769.50">
        <route edges="493.0 500.0 487.0 491.0" />
    </vehicle>
    <vehicle id="vehicle2590" type="vehicle_passenger" depart="777.00">
        <route edges="575.0 579.0 602.0 597.0 593.0" />
    </vehicle>
    <vehicle id="vehicle2602" type="vehicle_passenger" depart="780.60">
        <route edges="523.0 518.0 merge_zone_32 532.0 531.0 535.0 519.0 524.0 512.0 517.0 516.0 521.0 545.0 554.0 541.0 546.0 550.0 556.0 557.0" />
    </vehicle>
    <vehicle id="vehicle2623" type="vehicle_passenger" depart="786.90">
        <route edges="493.0 500.0 487.0 491.0" />
    </vehicle>
    <vehicle id="vehicle2631" type="vehicle_passenger" depart="789.30">
        <route edges="609.0 584.0 576.0" />
    </vehicle>
    <vehicle id="vehicle2663" type="vehicle_passenger" depart="798.90">
        <route edges="603.0 599.0 598.0 578.0 604.0 630.0 621.0" />
    </vehicle>
    <vehicle id="vehicle2664" type="vehicle_passenger" depart="799.20">
        <route edges="582.0 808.0 586.0 573.0 588.0 580.0 581.0" />
    </vehicle>
    <vehicle id="vehicle2667" type="vehicle_passenger" depart="800.10">
        <route edges="543.0 548.0 568.0 566.0 562.0 560.0 565.0 561.0 607.0 585.0 574.0 615.0 591.0 600.0 579.0 602.0 597.0 593.0" />
    </vehicle>
    <vehicle id="vehicle2688" type="vehicle_passenger" depart="806.40">
        <route edges="609.0 584.0 576.0" />
    </vehicle>
    <vehicle id="vehicle2695" type="vehicle_passenger" depart="808.50">
        <route edges="609.0 584.0 576.0" />
    </vehicle>
    <vehicle id="vehicle2722" type="vehicle_passenger" depart="816.60">
        <route edges="594.0" />
    </vehicle>
    <vehicle id="vehicle2727" type="vehicle_passenger" depart="818.10">
        <route edges="603.0 599.0 598.0 578.0 604.0 630.0 621.0" />
    </vehicle>
    <vehicle id="vehicle2732" type="vehicle_passenger" depart="819.60">
        <route edges="543.0 548.0 568.0 566.0 562.0 560.0 565.0 561.0 607.0 585.0 574.0 615.0 591.0 600.0 579.0 595.0" />
    </vehicle>
    <vehicle id="vehicle2770" type="vehicle_passenger" depart="831.00">
        <route edges="807.0 586.0 573.0 588.0 580.0 581.0" />
    </vehicle>
    <vehicle id="vehicle2793" type="vehicle_passenger" depart="837.90">
        <route edges="587.0 611.0" />
    </vehicle>
    <vehicle id="vehicle2805" type="vehicle_passenger" depart="841.50">
        <route edges="587.0 611.0" />
    </vehicle>
    <vehicle id="vehicle2823" type="vehicle_passenger" depart="846.90">
        <route edges="436.0 417.0 426.0 419.0 423.0 435.0 427.0 422.0 438.0 449.0 450.0 446.0" />
    </vehicle>
    <vehicle id="vehicle2825" type="vehicle_passenger" depart="847.50">
        <route edges="575.0 579.0 602.0 597.0 593.0" />
    </vehicle>
    <vehicle id="vehicle2843" type="vehicle_passenger" depart="852.90">
        <route edges="493.0 500.0 487.0 491.0" />
    </vehicle>
    <vehicle id="vehicle2913" type="vehicle_passenger" depart="873.90">
        <route edges="582.0 808.0 586.0 573.0 588.0 580.0 581.0" />
    </vehicle>
    <vehicle id="vehicle2933" type="vehicle_passenger" depart="879.90">
        <route edges="582.0 808.0 586.0 573.0 588.0 580.0 581.0" />
    </vehicle>
    <vehicle id="vehicle2939" type="vehicle_passenger" depart="881.70">
        <route edges="582.0 808.0 586.0 573.0 588.0 580.0 581.0" />
    </vehicle>
    <vehicle id="vehicle2982" type="vehicle_passenger" depart="894.60">
        <route edges="609.0 584.0 576.0" />
    </vehicle>
    <vehicle id="vehicle2988" type="vehicle_passenger" depart="896.40">
        <route edges="603.0 599.0 598.0 578.0 604.0 630.0 621.0" />
    </vehicle>
    <vehicle id="vehicle3015" type="vehicle_passenger" depart="904.50">
        <route edges="577.0 593.0" />
    </vehicle>
    <vehicle id="vehicle3028" type="vehicle_passenger" depart="908.40">
        <route edges="807.0 586.0 573.0 588.0 580.0 581.0" />
    </vehicle>
    <vehicle id="vehicle3032" type="vehicle_passenger" depart="909.60">
        <route edges="352.0 merge_zone_24 348.0 366.0 372.0 365.0 367.0 362.0 370.0 380.0 379.0" />
    </vehicle>
    <vehicle id="vehicle3040" type="vehicle_passenger" depart="912.00">
        <route edges="807.0 586.0 573.0 588.0 580.0 581.0" />
    </vehicle>
    <vehicle id="vehicle3075" type="vehicle_passenger" depart="922.50">
        <route edges="609.0 584.0 576.0" />
    </vehicle>
    <vehicle id="vehicle3106" type="vehicle_passenger" depart="931.80">
        <route edges="345.0 350.0 343.0 349.0 346.0 merge_zone_24 348.0 366.0 372.0 365.0 367.0 362.0 370.0 363.0 364.0" />
    </vehicle>
    <vehicle id="vehicle3128" type="vehicle_passenger" depart="938.40">
        <route edges="393.0 401.0 395.0 407.0 410.0" />
    </vehicle>
    <vehicle id="vehicle3156" type="vehicle_passenger" depart="946.80">
        <route edges="609.0 584.0 576.0" />
    </vehicle>
    <vehicle id="vehicle3160" type="vehicle_passenger" depart="948.00">
        <route edges="543.0 548.0 568.0 566.0 562.0 560.0 565.0 561.0 607.0 585.0 574.0 615.0 591.0 600.0 579.0 602.0 597.0 593.0" />
    </vehicle>
    <vehicle id="vehicle3162" type="vehicle_passenger" depart="948.60">
        <route edges="609.0 584.0 576.0" />
    </vehicle>
    <vehicle id="vehicle3188" type="vehicle_passenger" depart="956.40">
        <route edges="609.0 584.0 576.0" />
    </vehicle>
    <vehicle id="vehicle3211" type="vehicle_passenger" depart="963.30">
        <route edges="609.0 584.0 576.0" />
    </vehicle>
    <vehicle id="vehicle3221" type="vehicle_passenger" depart="966.30">
        <route edges="440.0 448.0 439.0 451.0 445.0 447.0 443.0 441.0 442.0 811.0 812.0 461.0 466.0 458.0 459.0 455.0 456.0 457.0 462.0 merge_zone_29 464.0 468.0 476.0" />
    </vehicle>
    <vehicle id="vehicle3299" type="vehicle_passenger" depart="989.70">
        <route edges="807.0 586.0 573.0 588.0 580.0 581.0" />
    </vehicle>
    <vehicle id="vehicle3361" type="vehicle_passenger" depart="1008.30">
        <route edges="440.0 448.0 439.0 451.0 445.0 447.0 443.0 441.0 442.0 811.0 812.0 461.0 466.0 458.0 459.0 455.0 456.0 457.0 462.0 merge_zone_29 464.0 474.0 472.0 477.0 473.0 479.0 480.0 471.0 478.0 486.0 496.0" />
    </vehicle>
    <vehicle id="vehicle3368" type="vehicle_passenger" depart="1010.40">
        <route edges="603.0 599.0 598.0 578.0 604.0 630.0 621.0" />
    </vehicle>
    <vehicle id="vehicle3377" type="vehicle_passenger" depart="1013.10">
        <route edges="582.0 808.0 586.0 573.0 588.0 580.0 581.0" />
    </vehicle>
    <vehicle id="vehicle3390" type="vehicle_passenger" depart="1017.00">
        <route edges="533.0 515.0 528.0" />
    </vehicle>
    <vehicle id="vehicle3421" type="vehicle_passenger" depart="1026.30">
        <route edges="440.0 448.0 439.0 451.0 445.0 447.0 443.0 441.0 442.0 811.0 812.0 461.0 466.0 458.0 459.0 455.0 456.0 457.0 462.0 merge_zone_29 464.0 474.0 472.0 477.0 473.0 479.0 480.0 471.0 478.0 486.0 496.0" />
    </vehicle>
    <vehicle id="vehicle3430" type="vehicle_passenger" depart="1029.00">
        <route edges="440.0 448.0 439.0 451.0 445.0 447.0 443.0 441.0 442.0 811.0 812.0 461.0 466.0 458.0 459.0 455.0 456.0 457.0 462.0 merge_zone_29 464.0 474.0 472.0 477.0 473.0 479.0 480.0 471.0 478.0 486.0 496.0" />
    </vehicle>
    <vehicle id="vehicle3436" type="vehicle_passenger" depart="1030.80">
        <route edges="493.0 500.0 487.0 491.0" />
    </vehicle>
    <vehicle id="vehicle3455" type="vehicle_passenger" depart="1036.50">
        <route edges="377.0 375.0 368.0 382.0 merge_zone_25 373.0 383.0 384.0 385.0 396.0 390.0 386.0 391.0" />
    </vehicle>
    <vehicle id="vehicle3476" type="vehicle_passenger" depart="1042.80">
        <route edges="582.0 808.0 586.0 573.0 588.0 580.0 581.0" />
    </vehicle>
    <vehicle id="vehicle3479" type="vehicle_passenger" depart="1043.70">
        <route edges="603.0 599.0 598.0 578.0 583.0" />
    </vehicle>
    <vehicle id="vehicle3480" type="vehicle_passenger" depart="1044.00">
        <route edges="609.0 584.0 576.0" />
    </vehicle>
    <vehicle id="vehicle3492" type="vehicle_passenger" depart="1047.60">
        <route edges="409.0 405.0 434.0 425.0 420.0 431.0 428.0 418.0" />
    </vehicle>
    <vehicle id="vehicle3523" type="vehicle_passenger" depart="1056.90">
        <route edges="440.0 448.0 439.0 451.0 445.0 447.0 443.0 441.0 442.0 811.0 812.0 461.0 466.0 458.0 459.0 455.0 456.0 457.0 462.0 merge_zone_29 464.0 474.0 472.0 477.0 473.0 479.0 480.0 471.0 478.0 486.0 496.0" />
    </vehicle>
    <vehicle id="vehicle3526" type="vehicle_passenger" depart="1057.80">
        <route edges="406.0" />
    </vehicle>
    <vehicle id="vehicle3536" type="vehicle_passenger" depart="1060.80">
        <route edges="594.0" />
    </vehicle>