<?xml version='1.0' encoding='utf-8'?>
<edges>
    <edge id="119.0" from="junction_108" to="junction_9" numLanes="3" speed="13.89" type="town" shape="585828.12,3266842.55 585833.34,3266844.86 585833.34,3266844.86 585847.74,3266851.19 585847.74,3266851.19 585864.69,3266858.68 585864.69,3266858.68 585874.86,3266863.21 585874.86,3266863.21 585893.07,3266871.27 585893.07,3266871.27 585907.17,3266877.51 585907.17,3266877.51 585925.21,3266885.40 585925.21,3266885.40 585936.61,3266890.33 585936.61,3266890.33 585945.87,3266894.33 585945.87,3266894.33 585966.61,3266903.32 585966.61,3266903.32 585979.29,3266908.75 585979.29,3266908.75 585990.54,3266913.46 585990.54,3266913.46 585999.11,3266917.01 585999.11,3266917.01 586008.11,3266920.67 586008.11,3266920.67 586017.10,3266924.19 586017.10,3266924.19 586026.59,3266927.85 586026.59,3266927.85 586036.29,3266931.40 586036.29,3266931.40 586043.02,3266933.81 586043.02,3266933.81 586050.65,3266936.52 586050.65,3266936.52 586061.23,3266940.18 586061.23,3266940.18 586066.79,3266942.06 586066.79,3266942.06 586074.66,3266944.70 586074.66,3266944.70 586078.04,3266945.81 586078.04,3266945.81 586084.97,3266948.16 586084.97,3266948.16 586094.47,3266951.24 586094.47,3266951.24 586105.87,3266954.91 586105.87,3266954.91 586117.92,3266958.72 586117.92,3266958.72 586129.23,3266962.26 586129.23,3266962.26 586139.89,3266965.60 586139.89,3266965.60 586154.42,3266970.07 586154.42,3266970.07 586158.36,3266971.30">
        <lane index="0" width="3.66" type="shoulder" disallow="all" />
        <lane index="1" width="3.66" />
        <lane index="2" width="3.66" />
    </edge>
    <edge id="121.0" from="junction_108" to="node_121_end" numLanes="1" speed="13.89" type="town" shape="585830.83,3266835.66 585839.80,3266838.38 585839.80,3266838.38 585854.58,3266842.74 585854.58,3266842.74 585865.73,3266846.03 585865.73,3266846.03 585894.93,3266854.27">
        <lane index="0" width="3.66" />
    </edge>
    <edge id="123.0" from="node_123_start" to="node_123_end" numLanes="2" speed="13.89" type="town" shape="586322.98,3267021.98 586332.51,3267024.90 586332.51,3267024.90 586340.63,3267027.40 586340.63,3267027.40 586348.65,3267029.90 586348.65,3267029.90 586364.14,3267034.65 586364.14,3267034.65 586368.97,3267036.13 586368.97,3267036.13 586376.46,3267038.51 586376.46,3267038.51 586385.69,3267041.36">
        <lane index="0" width="3.66" />
        <lane index="1" width="3.66" />
    </edge>
    <edge id="127.0" from="junction_9" to="node_123_start" numLanes="3" speed="13.89" type="town" shape="586217.16,3266989.31 586225.95,3266991.99 586225.95,3266991.99 586239.84,3266996.25 586239.84,3266996.25 586250.11,3266999.46 586250.11,3266999.46 586257.87,3267001.89 586257.87,3267001.89 586266.10,3267004.44 586266.10,3267004.44 586276.42,3267007.64 586276.42,3267007.64 586288.90,3267011.48 586288.90,3267011.48 586306.53,3267016.91 586306.53,3267016.91 586322.98,3267021.98">
        <lane index="0" width="3.66" />
        <lane index="1" width="3.66" />
        <lane index="2" width="3.66" />
    </edge>
    <edge id="136.0" from="node_123_start" to="node_123_end" numLanes="1" speed="13.89" type="town" shape="586325.14,3267015.39 586386.71,3267037.83">
        <lane index="0" width="3.66" />
    </edge>
    <edge id="147.0" from="node_123_end" to="junction_67" numLanes="3" speed="13.89" type="town" shape="586385.69,3267041.36 586390.69,3267042.91 586390.69,3267042.91 586396.42,3267044.65 586396.42,3267044.65 586403.07,3267046.72 586403.07,3267046.72 586408.10,3267048.29 586408.10,3267048.29 586413.37,3267049.94 586413.37,3267049.94 586418.95,3267051.71 586418.95,3267051.71 586425.80,3267053.84 586425.80,3267053.84 586430.59,3267055.34 586430.59,3267055.34 586433.50,3267056.22 586433.50,3267056.22 586437.41,3267057.46 586437.41,3267057.46 586441.15,3267058.59 586441.15,3267058.59 586445.51,3267059.94 586445.51,3267059.94 586453.06,3267062.27 586453.06,3267062.27 586459.62,3267064.28 586459.62,3267064.28 586467.19,3267066.61 586467.19,3267066.61 586477.37,3267069.72 586477.37,3267069.72 586489.33,3267073.41 586489.33,3267073.41 586499.89,3267076.72 586499.89,3267076.72 586511.95,3267080.45 586511.95,3267080.45 586527.05,3267085.10 586527.05,3267085.10 586541.80,3267089.68 586541.80,3267089.68 586561.20,3267095.74 586561.20,3267095.74 586582.34,3267102.28 586582.34,3267102.28 586594.88,3267106.21 586594.88,3267106.21 586611.66,3267111.45 586611.66,3267111.45 586628.06,3267116.60 586628.06,3267116.60 586646.43,3267122.33 586646.43,3267122.33 586656.99,3267125.62 586656.99,3267125.62 586671.49,3267129.96 586671.49,3267129.96 586686.62,3267134.60 586686.62,3267134.60 586699.05,3267138.45 586699.05,3267138.45 586712.92,3267142.79 586712.92,3267142.79 586728.00,3267147.43 586728.00,3267147.43 586742.68,3267151.96 586742.68,3267151.96 586755.45,3267155.92 586755.45,3267155.92 586769.23,3267160.17 586769.23,3267160.17 586779.93,3267163.43 586779.93,3267163.43 586788.89,3267166.22 586788.89,3267166.22 586801.27,3267169.99 586801.27,3267169.99 586813.34,3267173.72 586813.34,3267173.72 586825.04,3267177.37 586825.04,3267177.37 586835.01,3267180.46 586835.01,3267180.46 586845.49,3267183.71 586845.49,3267183.71 586855.85,3267186.97 586855.85,3267186.97 586868.73,3267190.96 586868.73,3267190.96 586889.73,3267197.44 586889.73,3267197.44 586903.79,3267201.81 586903.79,3267201.81 586920.96,3267207.14 586920.96,3267207.14 586937.27,3267212.11 586937.27,3267212.11 586946.56,3267214.97 586946.56,3267214.97 586964.61,3267220.55 586964.61,3267220.55 586980.39,3267225.44 586980.39,3267225.44 586999.88,3267231.56 586999.88,3267231.56 587014.91,3267236.12 587014.91,3267236.12 587033.31,3267241.83 587033.31,3267241.83 587052.52,3267247.76 587052.52,3267247.76 587069.37,3267252.95 587069.37,3267252.95 587088.60,3267258.87 587088.60,3267258.87 587106.89,3267264.51 587106.89,3267264.51 587121.11,3267268.94 587121.11,3267268.94 587141.60,3267275.27 587141.60,3267275.27 587170.81,3267284.25 587170.81,3267284.25 587208.36,3267295.83 587208.36,3267295.83 587244.18,3267306.88 587244.18,3267306.88 587274.33,3267316.13 587274.33,3267316.13 587299.65,3267323.94 587299.65,3267323.94 587327.10,3267332.42 587327.10,3267332.42 587348.93,3267339.21 587348.93,3267339.21 587370.68,3267345.99 587370.68,3267345.99 587406.16,3267357.04 587406.16,3267357.04 587432.82,3267365.27 587432.82,3267365.27 587452.09,3267371.27 587452.09,3267371.27 587476.09,3267378.74 587476.09,3267378.74 587499.62,3267386.03 587499.62,3267386.03 587518.84,3267391.94 587518.84,3267391.94 587540.79,3267398.79 587540.79,3267398.79 587567.92,3267407.28 587567.92,3267407.28 587594.30,3267415.46 587594.30,3267415.46 587611.62,3267420.76 587611.62,3267420.76 587633.46,3267427.38 587633.46,3267427.38 587649.56,3267432.34 587649.56,3267432.34 587666.38,3267437.47 587666.38,3267437.47 587682.42,3267442.42 587682.42,3267442.42 587700.29,3267447.88 587700.29,3267447.88 587714.81,3267452.40 587714.81,3267452.40 587728.15,3267456.56 587728.15,3267456.56 587740.25,3267460.33 587740.25,3267460.33 587755.97,3267465.20 587755.97,3267465.20 587773.19,3267470.47 587773.19,3267470.47 587789.54,3267475.56 587789.54,3267475.56 587807.08,3267480.97 587807.08,3267480.97 587826.65,3267486.98 587826.65,3267486.98 587838.20,3267490.52 587838.20,3267490.52 587851.52,3267494.69 587851.52,3267494.69 587869.88,3267500.38 587869.88,3267500.38 587889.06,3267506.33 587889.06,3267506.33 587909.08,3267512.44 587909.08,3267512.44 587927.55,3267518.07 587927.55,3267518.07 587948.93,3267524.69 587948.93,3267524.69 587961.92,3267528.70 587961.92,3267528.70 587982.23,3267535.11 587982.23,3267535.11 588003.61,3267541.81 588003.61,3267541.81 588025.29,3267548.50 588025.29,3267548.50 588047.74,3267555.38 588047.74,3267555.38 588062.91,3267560.02 588062.91,3267560.02 588080.73,3267565.50 588080.73,3267565.50 588101.73,3267572.01 588101.73,3267572.01 588119.38,3267577.49 588119.38,3267577.49 588130.21,3267580.84 588130.21,3267580.84 588145.40,3267585.64 588145.40,3267585.64 588153.29,3267588.08">
        <lane index="0" width="3.66" type="shoulder" disallow="all" />
        <lane index="1" width="3.66" />
        <lane index="2" width="3.66" />
    </edge>
    <edge id="868.0" from="node_950_end" to="node_868_end" numLanes="2" speed="13.89" type="town" shape="584752.70,3266368.17 584820.53,3266398.34 584820.53,3266398.34 584905.69,3266435.81 584905.69,3266435.81 584956.64,3266458.01">
        <lane index="0" width="3.66" />
        <lane index="1" width="3.66" />
    </edge>
    <edge id="869.0" from="node_868_end" to="node_869_end" numLanes="2" speed="13.89" type="town" shape="584956.64,3266458.01 584973.25,3266465.24 584973.25,3266465.24 585129.57,3266534.19">
        <lane index="0" width="3.66" />
        <lane index="1" width="3.66" />
    </edge>
    <edge id="870.0" from="node_869_end" to="node_870_end" numLanes="2" speed="13.89" type="town" shape="585129.57,3266534.19 585129.89,3266534.33 585129.89,3266534.33 585160.71,3266548.00 585160.71,3266548.00 585170.48,3266552.31 585170.48,3266552.31 585192.58,3266562.05 585192.58,3266562.05 585205.88,3266567.96">
        <lane index="0" width="3.66" />
        <lane index="1" width="3.66" />
    </edge>
    <edge id="871.0" from="j_merge_end_49" to="junction_108" numLanes="2" speed="13.89" type="town" shape="585400.42,3266653.63 585404.97,3266655.63 585404.97,3266655.63 585418.19,3266661.41 585418.19,3266661.41 585434.32,3266668.45 585434.32,3266668.45 585448.07,3266674.47 585448.07,3266674.47 585463.54,3266681.24 585463.54,3266681.24 585480.72,3266688.72 585480.72,3266688.72 585505.53,3266699.54 585505.53,3266699.54 585531.93,3266711.13 585531.93,3266711.13 585549.69,3266718.97 585549.69,3266718.97 585568.79,3266727.41 585568.79,3266727.41 585591.76,3266737.64 585591.76,3266737.64 585612.82,3266747.04 585612.82,3266747.04 585633.98,3266756.38 585633.98,3266756.38 585660.90,3266768.28 585660.90,3266768.28 585670.44,3266772.52 585670.44,3266772.52 585682.93,3266778.13 585682.93,3266778.13 585698.24,3266784.88 585698.24,3266784.88 585711.72,3266790.89 585711.72,3266790.89 585726.99,3266797.66 585726.99,3266797.66 585738.73,3266802.92 585738.73,3266802.92 585754.27,3266809.83 585754.27,3266809.83 585769.37,3266816.55">
        <lane index="0" width="3.66" />
        <lane index="1" width="3.66" />
    </edge>
    <edge id="872.0" from="node_872_start" to="node_872_end" numLanes="1" speed="13.89" type="town" shape="585147.40,3266524.25 585178.21,3266541.01">
        <lane index="0" width="3.66" />
    </edge>
    <edge id="873.0" from="node_870_end" to="j_merge_start_49" numLanes="2" speed="13.89" type="town" shape="585205.88,3266567.96 585217.67,3266573.20 585217.67,3266573.20 585241.96,3266583.88 585241.96,3266583.88 585257.52,3266590.73">
        <lane index="0" width="3.66" />
        <lane index="1" width="3.66" />
    </edge>
    <edge id="876.0" from="node_872_end" to="j_merge_start_49" numLanes="1" speed="13.89" type="town" shape="585178.21,3266541.01 585200.71,3266552.99 585200.71,3266552.99 585231.21,3266569.05 585231.21,3266569.05 585250.87,3266579.28 585250.87,3266579.28 585260.41,3266584.08">
        <lane index="0" width="3.66" />
    </edge>
    <edge id="949.0" from="junction_109" to="node_950_start" numLanes="4" speed="13.89" type="town" shape="584040.46,3266064.97 584079.80,3266082.32 584079.80,3266082.32 584119.17,3266099.65 584119.17,3266099.65 584158.54,3266116.96 584158.54,3266116.96 584197.88,3266134.30 584197.88,3266134.30 584237.21,3266151.70 584237.21,3266151.70 584276.56,3266169.06 584276.56,3266169.06 584315.94,3266186.36 584315.94,3266186.36 584355.24,3266203.75 584355.24,3266203.75 584394.59,3266221.18 584394.59,3266221.18 584433.95,3266238.48 584433.95,3266238.48 584473.34,3266255.78 584473.34,3266255.78 584481.83,3266259.40">
        <lane index="0" width="3.66" />
        <lane index="1" width="3.66" />
        <lane index="2" width="3.66" />
        <lane index="3" width="3.66" type="shoulder" disallow="all" />
    </edge>
    <edge id="950.0" from="node_949_end" to="node_868_start" numLanes="3" speed="13.89" type="town" shape="584483.21,3266256.05 584498.88,3266262.89 584498.88,3266262.89 584547.13,3266282.62 584547.13,3266282.62 584581.84,3266297.03 584581.84,3266297.03 584623.37,3266314.20 584623.37,3266314.20 584662.39,3266330.28 584662.39,3266330.28 584706.75,3266348.72 584706.75,3266348.72 584752.45,3266368.72">
        <lane index="0" width="3.66" />
        <lane index="1" width="3.66" />
        <lane index="2" width="3.66" />
    </edge>
    <edge id="882.0" from="j_merge_end_50" to="junction_109" numLanes="5" speed="13.89" type="town" shape="583492.90,3265823.54 583527.23,3265838.65 583527.23,3265838.65 583561.59,3265853.71 583561.59,3265853.71 583595.92,3265868.77 583595.92,3265868.77 583630.20,3265883.96 583630.20,3265883.96 583664.49,3265899.19 583664.49,3265899.19 583698.81,3265914.28 583698.81,3265914.28 583733.11,3265929.44 583733.11,3265929.44 583767.42,3265944.59 583767.42,3265944.59 583801.76,3265959.69 583801.76,3265959.69 583836.08,3265974.79 583836.08,3265974.79 583870.38,3265989.94 583870.38,3265989.94 583904.68,3266005.15 583904.68,3266005.15 583939.01,3266020.22">
        <lane index="0" width="3.66" type="shoulder" disallow="all" />
        <lane index="1" width="3.66" />
        <lane index="2" width="3.66" />
        <lane index="3" width="3.66" />
        <lane index="4" width="3.66" type="shoulder" disallow="all" />
    </edge>
    <edge id="merge_zone_49" from="j_merge_start_49" to="j_merge_end_49" numLanes="3" speed="13.89" name="Merge zone 49" type="highway_merge" shape="585315.80,3266616.55 585315.80,3266616.55 585344.94,3266629.37 585344.94,3266629.37 585349.43,3266631.36 585349.43,3266631.36 585361.68,3266636.80">
        <lane index="0" width="3.66" />
        <lane index="1" width="3.66" />
        <lane index="2" width="3.66" />
    </edge>
</edges>