<?xml version='1.0' encoding='utf-8'?>
<connections>
    <connection from="871.0" to="121.0" fromLane="0" toLane="0" />
    <connection from="871.0" to="119.0" fromLane="1" toLane="2" />
    <connection from="871.0" to="119.0" fromLane="0" toLane="1" />
    <connection from="882.0" to="949.0" fromLane="4" toLane="3" />
    <connection from="882.0" to="949.0" fromLane="3" toLane="2" />
    <connection from="882.0" to="949.0" fromLane="2" toLane="1" />
    <connection from="882.0" to="949.0" fromLane="1" toLane="0" />
    <connection from="876.0" to="merge_zone_49" fromLane="0" toLane="0" />
    <connection from="merge_zone_49" to="871.0" fromLane="0" toLane="1" dir="r" state="m" />
    <connection from="873.0" to="merge_zone_49" fromLane="1" toLane="2" />
    <connection from="873.0" to="merge_zone_49" fromLane="0" toLane="1" />
    <connection from="merge_zone_49" to="871.0" fromLane="2" toLane="1" />
    <connection from="merge_zone_49" to="871.0" fromLane="1" toLane="0" />
    <connection from="119.0" to="127.0" fromLane="2" toLane="2" />
    <connection from="119.0" to="127.0" fromLane="1" toLane="1" />
</connections>