<?xml version='1.0' encoding='utf-8'?>
<connections>
    <connection from="809.0" to="merge_zone_1" fromLane="2" toLane="3" />
    <connection from="809.0" to="merge_zone_1" fromLane="1" toLane="2" />
    <connection from="809.0" to="merge_zone_1" fromLane="0" toLane="1" />
    <connection from="809.0" to="merge_zone_1" fromLane="3" toLane="4" />
    <connection from="merge_zone_1" to="3.0" fromLane="3" toLane="3" />
    <connection from="merge_zone_1" to="3.0" fromLane="2" toLane="2" />
    <connection from="merge_zone_1" to="3.0" fromLane="1" toLane="1" />
    <connection from="merge_zone_1" to="3.0" fromLane="4" toLane="4" />
    <connection from="21.0" to="merge_zone_1" fromLane="3" toLane="0" />
    <connection from="merge_zone_1" to="3.0" fromLane="0" toLane="4" dir="r" state="m" />
    <connection from="781.0" to="796.0" fromLane="3" toLane="2" />
    <connection from="781.0" to="796.0" fromLane="2" toLane="1" />
    <connection from="781.0" to="796.0" fromLane="1" toLane="0" />
    <connection from="781.0" to="796.0" fromLane="4" toLane="3" />
    <connection from="781.0" to="798.0" fromLane="1" toLane="0" />
    <connection from="50.0" to="5.0" fromLane="1" toLane="2" />
    <connection from="50.0" to="5.0" fromLane="3" toLane="4" />
    <connection from="50.0" to="5.0" fromLane="4" toLane="5" />
    <connection from="50.0" to="5.0" fromLane="2" toLane="3" />
    <connection from="800.0" to="782.0" fromLane="2" toLane="3" />
    <connection from="800.0" to="782.0" fromLane="0" toLane="1" />
    <connection from="800.0" to="782.0" fromLane="3" toLane="4" />
    <connection from="800.0" to="782.0" fromLane="1" toLane="2" />
    <connection from="6.0" to="53.0" fromLane="4" toLane="3" />
    <connection from="6.0" to="53.0" fromLane="3" toLane="2" />
    <connection from="6.0" to="53.0" fromLane="2" toLane="1" />
    <connection from="6.0" to="53.0" fromLane="5" toLane="4" />
</connections>