<?xml version='1.0' encoding='utf-8'?>
<edges>
    <edge id="21.0" from="node_21_start" to="j_merge_start_1" numLanes="4" speed="13.89" type="town" shape="785108.90,3296984.66 785172.92,3296978.79">
        <lane index="0" width="3.66" type="shoulder" disallow="all" />
        <lane index="1" width="3.66" />
        <lane index="2" width="3.66" />
        <lane index="3" width="3.66" />
    </edge>
    <edge id="23.0" from="node_3_end" to="node_4_end" numLanes="2" speed="13.89" type="town" shape="785462.98,3296957.43 785543.32,3296950.05 785543.32,3296950.05 785614.00,3296943.84">
        <lane index="0" width="3.66" type="shoulder" disallow="all" />
        <lane index="1" width="3.66" />
    </edge>
    <edge id="24.0" from="node_24_start" to="node_24_end" numLanes="4" speed="13.89" type="town" shape="785024.20,3296994.28 785085.42,3296987.27">
        <lane index="0" width="3.66" type="shoulder" disallow="all" />
        <lane index="1" width="3.66" />
        <lane index="2" width="3.66" />
        <lane index="3" width="3.66" />
    </edge>
    <edge id="25.0" from="node_25_start" to="node_25_end" numLanes="4" speed="13.89" type="town" shape="784964.05,3297001.22 784999.02,3296997.24">
        <lane index="0" width="3.66" type="shoulder" disallow="all" />
        <lane index="1" width="3.66" />
        <lane index="2" width="3.66" />
        <lane index="3" width="3.66" />
    </edge>
    <edge id="3.0" from="j_merge_end_1" to="node_3_end" numLanes="5" speed="13.89" type="town" shape="785437.25,3296975.03 785464.66,3296971.91">
        <lane index="0" width="3.66" />
        <lane index="1" width="3.66" />
        <lane index="2" width="3.66" />
        <lane index="3" width="3.66" />
        <lane index="4" width="3.66" type="shoulder" disallow="all" />
    </edge>
    <edge id="4.0" from="node_3_end" to="node_4_end" numLanes="4" speed="13.89" type="town" shape="785464.66,3296971.91 785615.28,3296954.91">
        <lane index="0" width="3.66" />
        <lane index="1" width="3.66" />
        <lane index="2" width="3.66" />
        <lane index="3" width="3.66" type="shoulder" disallow="all" />
    </edge>
    <edge id="44.0" from="node_24_end" to="node_21_start" numLanes="3" speed="13.89" type="town" shape="785085.42,3296987.27 785108.90,3296984.66">
        <lane index="0" width="3.66" />
        <lane index="1" width="3.66" />
        <lane index="2" width="3.66" />
    </edge>
    <edge id="45.0" from="node_25_end" to="node_24_start" numLanes="3" speed="13.89" type="town" shape="784999.02,3296997.24 785024.20,3296994.28">
        <lane index="0" width="3.66" />
        <lane index="1" width="3.66" />
        <lane index="2" width="3.66" />
    </edge>
    <edge id="46.0" from="node_46_start" to="node_25_start" numLanes="3" speed="13.89" type="town" shape="784934.64,3297004.50 784964.05,3297001.22">
        <lane index="0" width="3.66" />
        <lane index="1" width="3.66" />
        <lane index="2" width="3.66" />
    </edge>
    <edge id="5.0" from="junction_2" to="node_5_end" numLanes="6" speed="13.89" type="town" shape="786392.46,3297048.45 786527.24,3297089.24">
        <lane index="0" width="3.66" type="shoulder" disallow="all" />
        <lane index="1" width="3.66" />
        <lane index="2" width="3.66" />
        <lane index="3" width="3.66" />
        <lane index="4" width="3.66" />
        <lane index="5" width="3.66" type="shoulder" disallow="all" />
    </edge>
    <edge id="50.0" from="node_4_end" to="junction_2" numLanes="5" speed="13.89" type="town" shape="785615.28,3296954.91 785698.16,3296945.55 785698.16,3296945.55 785720.05,3296943.61 785720.05,3296943.61 785757.90,3296941.19 785757.90,3296941.19 785777.15,3296940.44 785777.15,3296940.44 785829.85,3296939.51 785829.85,3296939.51 785896.73,3296941.36 785896.73,3296941.36 785922.42,3296942.86 785922.42,3296942.86 785953.40,3296945.45 785953.40,3296945.45 785984.78,3296948.61 785984.78,3296948.61 786016.14,3296952.42 786016.14,3296952.42 786043.47,3296956.47 786043.47,3296956.47 786070.69,3296960.99 786070.69,3296960.99 786128.94,3296972.92 786128.94,3296972.92 786155.70,3296979.15 786155.70,3296979.15 786174.21,3296983.86 786174.21,3296983.86 786203.94,3296991.93">
        <lane index="0" width="3.66" type="shoulder" disallow="all" />
        <lane index="1" width="3.66" />
        <lane index="2" width="3.66" />
        <lane index="3" width="3.66" />
        <lane index="4" width="3.66" type="shoulder" disallow="all" />
    </edge>
    <edge id="53.0" from="junction_58" to="node_53_end" numLanes="5" speed="13.89" type="town" shape="787658.91,3297430.90 787870.26,3297494.31 787870.26,3297494.31 788090.55,3297560.81 788090.55,3297560.81 788305.84,3297625.90 788305.84,3297625.90 788413.74,3297658.49 788413.74,3297658.49 788467.63,3297675.41 788467.63,3297675.41 788521.26,3297692.95 788521.26,3297692.95 788755.94,3297771.35 788755.94,3297771.35 788873.29,3297810.45 788873.29,3297810.45 788931.68,3297829.68 788931.68,3297829.68 788991.13,3297848.67 788991.13,3297848.67 789866.65,3298113.23 789866.65,3298113.23 790026.37,3298160.96">
        <lane index="0" width="3.66" type="shoulder" disallow="all" />
        <lane index="1" width="3.66" />
        <lane index="2" width="3.66" />
        <lane index="3" width="3.66" />
        <lane index="4" width="3.66" type="shoulder" disallow="all" />
    </edge>
    <edge id="6.0" from="node_5_end" to="junction_58" numLanes="6" speed="13.89" type="town" shape="786527.24,3297089.24 787124.05,3297269.36 787124.05,3297269.36 787242.69,3297305.24 787242.69,3297305.24 787550.24,3297397.91">
        <lane index="0" width="3.66" type="shoulder" disallow="all" />
        <lane index="1" width="3.66" />
        <lane index="2" width="3.66" />
        <lane index="3" width="3.66" />
        <lane index="4" width="3.66" />
        <lane index="5" width="3.66" type="shoulder" disallow="all" />
    </edge>
    <edge id="781.0" from="node_781_start" to="junction_102" numLanes="5" speed="13.89" type="town" shape="782736.17,3297257.37 782743.83,3297256.49 782743.83,3297256.49 782760.56,3297254.77 782760.56,3297254.77 782784.21,3297252.36 782784.21,3297252.36 782803.98,3297250.45 782803.98,3297250.45 782812.71,3297249.60 782812.71,3297249.60 782830.33,3297247.56 782830.33,3297247.56 782849.70,3297245.35 782849.70,3297245.35 782871.10,3297242.90 782871.10,3297242.90 782891.10,3297240.62 782891.10,3297240.62 782911.03,3297238.36 782911.03,3297238.36 782933.70,3297235.76 782933.70,3297235.76 782956.75,3297233.15 782956.75,3297233.15 782980.20,3297230.47 782980.20,3297230.47 783005.56,3297227.70 783005.56,3297227.70 783030.36,3297225.14 783030.36,3297225.14 783054.52,3297222.72 783054.52,3297222.72 783079.76,3297220.36 783079.76,3297220.36 783095.09,3297218.93">
        <lane index="0" width="3.66" type="shoulder" disallow="all" />
        <lane index="1" width="3.66" />
        <lane index="2" width="3.66" />
        <lane index="3" width="3.66" />
        <lane index="4" width="3.66" type="shoulder" disallow="all" />
    </edge>
    <edge id="782.0" from="junction_44" to="node_782_end" numLanes="5" speed="13.89" type="town" shape="782421.69,3297295.51 782422.66,3297295.38 782422.66,3297295.38 782437.68,3297293.36 782437.68,3297293.36 782455.52,3297291.07 782455.52,3297291.07 782470.99,3297289.09 782470.99,3297289.09 782491.50,3297286.57 782491.50,3297286.57 782509.72,3297284.33 782509.72,3297284.33 782528.90,3297282.09 782528.90,3297282.09 782550.35,3297279.61 782550.35,3297279.61 782576.43,3297276.64 782576.43,3297276.64 782601.18,3297273.77 782601.18,3297273.77 782627.93,3297270.74 782627.93,3297270.74 782650.58,3297268.15 782650.58,3297268.15 782661.17,3297266.92">
        <lane index="0" width="3.66" type="shoulder" disallow="all" />
        <lane index="1" width="3.66" />
        <lane index="2" width="3.66" />
        <lane index="3" width="3.66" />
        <lane index="4" width="3.66" type="shoulder" disallow="all" />
    </edge>
    <edge id="785.0" from="node_785_start" to="node_785_end" numLanes="5" speed="13.89" type="town" shape="784514.62,3297080.61 784515.97,3297080.46 784515.97,3297080.46 784542.44,3297077.44 784542.44,3297077.44 784567.14,3297074.63 784567.14,3297074.63 784592.14,3297071.79 784592.14,3297071.79 784617.30,3297068.91 784617.30,3297068.91 784641.08,3297066.20 784641.08,3297066.20 784665.34,3297063.38 784665.34,3297063.38 784688.72,3297060.73 784688.72,3297060.73 784715.08,3297057.74 784715.08,3297057.74 784740.53,3297054.82 784740.53,3297054.82 784759.42,3297052.63 784759.42,3297052.63 784790.84,3297049.02 784790.84,3297049.02 784825.73,3297045.07 784825.73,3297045.07 784849.55,3297042.34 784849.55,3297042.34 784875.09,3297039.40 784875.09,3297039.40 784896.69,3297036.94 784896.69,3297036.94 784919.69,3297034.31 784919.69,3297034.31 784941.02,3297031.88 784941.02,3297031.88 784964.07,3297029.25 784964.07,3297029.25 784985.54,3297026.75 784985.54,3297026.75 785008.66,3297024.15 785008.66,3297024.15 785031.48,3297021.55 785031.48,3297021.55 785054.57,3297018.92 785054.57,3297018.92 785078.10,3297016.21 785078.10,3297016.21 785097.48,3297014.00 785097.48,3297014.00 785120.08,3297011.43 785120.08,3297011.43 785140.80,3297009.11 785140.80,3297009.11 785149.23,3297008.13">
        <lane index="0" width="3.66" type="shoulder" disallow="all" />
        <lane index="1" width="3.66" />
        <lane index="2" width="3.66" />
        <lane index="3" width="3.66" />
        <lane index="4" width="3.66" type="shoulder" disallow="all" />
    </edge>
    <edge id="787.0" from="node_787_start" to="node_787_end" numLanes="5" speed="13.89" type="town" shape="780686.10,3297515.56 780690.11,3297515.09 780690.11,3297515.09 780706.44,3297513.23 780706.44,3297513.23 780721.45,3297511.53 780721.45,3297511.53 780739.51,3297509.47 780739.51,3297509.47 780757.01,3297507.46 780757.01,3297507.46 780772.89,3297505.64 780772.89,3297505.64 780790.58,3297503.62 780790.58,3297503.62 780807.16,3297501.76 780807.16,3297501.76 780822.64,3297499.98 780822.64,3297499.98 780838.88,3297498.12 780838.88,3297498.12 780850.78,3297496.75 780850.78,3297496.75 780863.07,3297495.32 780863.07,3297495.32 780878.11,3297493.61 780878.11,3297493.61 780892.72,3297491.94 780892.72,3297491.94 780906.97,3297490.29 780906.97,3297490.29 780920.54,3297488.77 780920.54,3297488.77 780933.99,3297487.23 780933.99,3297487.23 780951.50,3297485.20 780951.50,3297485.20 780967.24,3297483.43 780967.24,3297483.43 780981.56,3297481.79 780981.56,3297481.79 780995.69,3297480.14 780995.69,3297480.14 781009.78,3297478.54 781009.78,3297478.54 781024.30,3297476.92 781024.30,3297476.92 781040.89,3297475.03 781040.89,3297475.03 781055.47,3297473.38 781055.47,3297473.38 781072.52,3297471.44 781072.52,3297471.44 781087.16,3297469.79 781087.16,3297469.79 781101.13,3297468.19 781101.13,3297468.19 781117.60,3297466.31 781117.60,3297466.31 781136.66,3297464.12 781136.66,3297464.12 781155.03,3297462.03 781155.03,3297462.03 781172.60,3297460.03 781172.60,3297460.03 781188.87,3297458.16 781188.87,3297458.16 781206.44,3297456.17 781206.44,3297456.17 781224.57,3297454.09 781224.57,3297454.09 781244.26,3297451.88 781244.26,3297451.88 781260.95,3297450.01 781260.95,3297450.01 781279.06,3297447.96 781279.06,3297447.96 781297.33,3297445.86 781297.33,3297445.86 781315.30,3297443.82 781315.30,3297443.82 781334.63,3297441.65 781334.63,3297441.65 781352.40,3297439.58 781352.40,3297439.58 781370.03,3297437.59 781370.03,3297437.59 781381.09,3297436.31 781381.09,3297436.31 781395.92,3297434.65 781395.92,3297434.65 781416.22,3297432.33 781416.22,3297432.33 781433.33,3297430.34 781433.33,3297430.34 781449.62,3297428.47 781449.62,3297428.47 781467.52,3297426.40 781467.52,3297426.40 781484.79,3297424.46 781484.79,3297424.46 781497.81,3297422.95 781497.81,3297422.95 781515.68,3297420.92 781515.68,3297420.92 781534.30,3297418.82 781534.30,3297418.82 781551.63,3297416.81 781551.63,3297416.81 781570.99,3297414.61 781570.99,3297414.61 781589.55,3297412.50 781589.55,3297412.50 781608.14,3297410.38 781608.14,3297410.38 781628.33,3297408.08 781628.33,3297408.08 781648.12,3297405.81 781648.12,3297405.81 781666.16,3297403.76 781666.16,3297403.76 781680.84,3297402.08 781680.84,3297402.08 781689.34,3297401.10">
        <lane index="0" width="3.66" type="shoulder" disallow="all" />
        <lane index="1" width="3.66" />
        <lane index="2" width="3.66" />
        <lane index="3" width="3.66" />
        <lane index="4" width="3.66" type="shoulder" disallow="all" />
    </edge>
    <edge id="788.0" from="node_788_start" to="node_788_end" numLanes="5" speed="13.89" type="town" shape="783347.11,3297198.42 783357.54,3297197.59 783357.54,3297197.59 783378.50,3297195.93 783378.50,3297195.93 783398.10,3297194.37 783398.10,3297194.37 783417.29,3297192.85 783417.29,3297192.85 783433.36,3297191.56 783433.36,3297191.56 783452.42,3297190.04 783452.42,3297190.04 783470.26,3297188.63 783470.26,3297188.63 783489.28,3297187.16 783489.28,3297187.16 783506.74,3297185.79 783506.74,3297185.79 783525.30,3297184.37 783525.30,3297184.37 783543.99,3297182.90 783543.99,3297182.90 783561.83,3297181.47 783561.83,3297181.47 783580.34,3297180.03 783580.34,3297180.03 783598.62,3297178.57 783598.62,3297178.57 783615.16,3297177.25 783615.16,3297177.25 783632.43,3297175.88 783632.43,3297175.88 783652.73,3297174.27 783652.73,3297174.27 783671.68,3297172.78 783671.68,3297172.78 783688.68,3297171.39 783688.68,3297171.39 783706.20,3297169.95 783706.20,3297169.95 783725.29,3297168.32 783725.29,3297168.32 783744.38,3297166.67 783744.38,3297166.67 783763.29,3297164.95 783763.29,3297164.95 783783.81,3297163.01 783783.81,3297163.01 783801.27,3297161.31 783801.27,3297161.31 783819.05,3297159.51 783819.05,3297159.51 783836.56,3297157.72 783836.56,3297157.72 783854.08,3297155.89 783854.08,3297155.89 783873.82,3297153.81 783873.82,3297153.81 783892.50,3297151.77 783892.50,3297151.77 783915.26,3297149.15 783915.26,3297149.15 783935.20,3297146.89 783935.20,3297146.89 783958.10,3297144.26 783958.10,3297144.26 783980.13,3297141.73 783980.13,3297141.73 784001.31,3297139.30 784001.31,3297139.30 784019.42,3297137.21 784019.42,3297137.21 784035.62,3297135.34 784035.62,3297135.34 784054.37,3297133.20 784054.37,3297133.20 784074.73,3297130.89 784074.73,3297130.89 784091.98,3297128.92 784091.98,3297128.92 784110.16,3297126.80 784110.16,3297126.80 784129.84,3297124.58 784129.84,3297124.58 784149.86,3297122.35 784149.86,3297122.35 784168.71,3297120.17 784168.71,3297120.17 784189.97,3297117.73 784189.97,3297117.73 784210.11,3297115.45 784210.11,3297115.45 784231.56,3297113.01 784231.56,3297113.01 784250.83,3297110.82 784250.83,3297110.82 784272.74,3297108.31 784272.74,3297108.31 784291.88,3297106.13 784291.88,3297106.13 784312.56,3297103.80 784312.56,3297103.80 784334.96,3297101.19 784334.96,3297101.19 784355.46,3297098.84 784355.46,3297098.84 784376.90,3297096.37 784376.90,3297096.37 784396.00,3297094.21 784396.00,3297094.21 784418.55,3297091.61 784418.55,3297091.61 784436.21,3297089.58 784436.21,3297089.58 784458.53,3297087.03">
        <lane index="0" width="3.66" type="shoulder" disallow="all" />
        <lane index="1" width="3.66" />
        <lane index="2" width="3.66" />
        <lane index="3" width="3.66" />
        <lane index="4" width="3.66" type="shoulder" disallow="all" />
    </edge>
    <edge id="791.0" from="node_791_start" to="node_791_end" numLanes="1" speed="13.89" type="town" shape="782072.18,3297324.83 782082.22,3297323.85 782082.22,3297323.85 782107.88,3297321.39 782107.88,3297321.39 782127.62,3297319.49 782127.62,3297319.49 782132.73,3297319.00">
        <lane index="0" width="3.66" />
    </edge>
    <edge id="792.0" from="node_782_end" to="node_781_start" numLanes="5" speed="13.89" type="town" shape="782661.17,3297266.92 782664.69,3297266.51 782664.69,3297266.51 782686.88,3297263.59 782686.88,3297263.59 782709.08,3297260.76 782709.08,3297260.76 782730.12,3297258.07 782730.12,3297258.07 782736.17,3297257.37">
        <lane index="0" width="3.66" type="shoulder" disallow="all" />
        <lane index="1" width="3.66" />
        <lane index="2" width="3.66" />
        <lane index="3" width="3.66" />
        <lane index="4" width="3.66" type="shoulder" disallow="all" />
    </edge>
    <edge id="793.0" from="node_787_end" to="node_793_end" numLanes="5" speed="13.89" type="town" shape="781689.34,3297401.10 781697.20,3297400.19 781697.20,3297400.19 781713.26,3297398.37 781713.26,3297398.37 781729.11,3297396.59 781729.11,3297396.59 781745.35,3297394.71">
        <lane index="0" width="3.66" type="shoulder" disallow="all" />
        <lane index="1" width="3.66" />
        <lane index="2" width="3.66" />
        <lane index="3" width="3.66" />
        <lane index="4" width="3.66" type="shoulder" disallow="all" />
    </edge>
    <edge id="795.0" from="node_788_end" to="node_785_start" numLanes="5" speed="13.89" type="town" shape="784458.53,3297087.03 784465.34,3297086.25 784465.34,3297086.25 784494.01,3297082.97 784494.01,3297082.97 784514.62,3297080.61">
        <lane index="0" width="3.66" type="shoulder" disallow="all" />
        <lane index="1" width="3.66" />
        <lane index="2" width="3.66" />
        <lane index="3" width="3.66" />
        <lane index="4" width="3.66" type="shoulder" disallow="all" />
    </edge>
    <edge id="796.0" from="junction_102" to="node_788_start" numLanes="4" speed="13.89" type="town" shape="783177.65,3297211.87 783184.15,3297211.35 783184.15,3297211.35 783206.96,3297209.54 783206.96,3297209.54 783234.01,3297207.41 783234.01,3297207.41 783255.10,3297205.70 783255.10,3297205.70 783277.73,3297203.92 783277.73,3297203.92 783296.05,3297202.46 783296.05,3297202.46 783318.52,3297200.66 783318.52,3297200.66 783337.54,3297199.18 783337.54,3297199.18 783347.11,3297198.42">
        <lane index="0" width="3.66" />
        <lane index="1" width="3.66" />
        <lane index="2" width="3.66" />
        <lane index="3" width="3.66" type="shoulder" disallow="all" />
    </edge>
    <edge id="797.0" from="node_797_start" to="node_797_end" numLanes="1" speed="13.89" type="town" shape="783345.22,3297175.13 783353.01,3297174.21 783353.01,3297174.21 783361.15,3297173.32 783361.15,3297173.32 783374.37,3297171.97 783374.37,3297171.97 783387.09,3297170.71 783387.09,3297170.71 783402.04,3297169.33 783402.04,3297169.33 783413.22,3297168.32 783413.22,3297168.32 783426.71,3297167.23 783426.71,3297167.23 783431.35,3297166.87">
        <lane index="0" width="3.66" />
    </edge>
    <edge id="798.0" from="junction_102" to="node_797_start" numLanes="1" speed="13.89" type="town" shape="783176.71,3297197.03 783195.87,3297194.56 783195.87,3297194.56 783214.54,3297192.06 783214.54,3297192.06 783226.30,3297190.54 783226.30,3297190.54 783240.95,3297188.58 783240.95,3297188.58 783252.82,3297187.01 783252.82,3297187.01 783265.21,3297185.40 783265.21,3297185.40 783277.24,3297183.79 783277.24,3297183.79 783288.84,3297182.24 783288.84,3297182.24 783301.13,3297180.67 783301.13,3297180.67 783314.12,3297179.00 783314.12,3297179.00 783328.44,3297177.17 783328.44,3297177.17 783340.61,3297175.68 783340.61,3297175.68 783345.22,3297175.13">
        <lane index="0" width="3.66" />
    </edge>
    <edge id="800.0" from="node_800_start" to="junction_44" numLanes="4" speed="13.89" type="town" shape="782135.82,3297339.59 782150.31,3297337.18 782150.31,3297337.18 782165.18,3297334.69 782165.18,3297334.69 782181.90,3297331.89 782181.90,3297331.89 782198.54,3297329.10 782198.54,3297329.10 782214.39,3297326.46 782214.39,3297326.46 782228.84,3297324.10 782228.84,3297324.10 782244.63,3297321.56 782244.63,3297321.56 782256.86,3297319.59 782256.86,3297319.59 782273.00,3297317.00 782273.00,3297317.00 782274.67,3297316.74">
        <lane index="0" width="3.66" />
        <lane index="1" width="3.66" />
        <lane index="2" width="3.66" />
        <lane index="3" width="3.66" type="shoulder" disallow="all" />
    </edge>
    <edge id="803.0" from="node_793_end" to="node_800_start" numLanes="5" speed="13.89" type="town" shape="781745.35,3297394.71 781761.24,3297392.84 781761.24,3297392.84 781776.48,3297391.10 781776.48,3297391.10 781790.27,3297389.50 781790.27,3297389.50 781804.88,3297387.80 781804.88,3297387.80 781819.86,3297385.99 781819.86,3297385.99 781837.42,3297383.82 781837.42,3297383.82 781852.36,3297381.93 781852.36,3297381.93 781864.63,3297380.37 781864.63,3297380.37 781878.64,3297378.52 781878.64,3297378.52 781894.00,3297376.51 781894.00,3297376.51 781907.28,3297374.69 781907.28,3297374.69 781921.16,3297372.77 781921.16,3297372.77 781935.91,3297370.70 781935.91,3297370.70 781948.65,3297368.88 781948.65,3297368.88 781964.48,3297366.62 781964.48,3297366.62 781979.28,3297364.46 781979.28,3297364.46 781992.06,3297362.55 781992.06,3297362.55 782008.20,3297360.14 782008.20,3297360.14 782025.29,3297357.54 782025.29,3297357.54 782039.04,3297355.40 782039.04,3297355.40 782054.88,3297352.91 782054.88,3297352.91 782066.72,3297351.01 782066.72,3297351.01 782080.04,3297348.85 782080.04,3297348.85 782095.12,3297346.40 782095.12,3297346.40 782108.32,3297344.20 782108.32,3297344.20 782120.72,3297342.10 782120.72,3297342.10 782134.43,3297339.82 782134.43,3297339.82 782135.82,3297339.59">
        <lane index="0" width="3.66" type="shoulder" disallow="all" />
        <lane index="1" width="3.66" />
        <lane index="2" width="3.66" />
        <lane index="3" width="3.66" />
        <lane index="4" width="3.66" type="shoulder" disallow="all" />
    </edge>
    <edge id="805.0" from="node_791_end" to="junction_44" numLanes="1" speed="13.89" type="town" shape="782132.73,3297319.00 782143.87,3297317.93 782143.87,3297317.93 782160.77,3297316.23 782160.77,3297316.23 782176.86,3297314.52 782176.86,3297314.52 782190.12,3297313.01 782190.12,3297313.01 782207.32,3297310.99 782207.32,3297310.99 782223.68,3297308.88 782223.68,3297308.88 782238.38,3297306.87 782238.38,3297306.87 782253.50,3297304.79 782253.50,3297304.79 782272.59,3297302.01">
        <lane index="0" width="3.66" />
    </edge>
    <edge id="809.0" from="node_785_end" to="j_merge_start_1" numLanes="4" speed="13.89" type="town" shape="785149.23,3297008.13 785157.61,3297007.15 785157.61,3297007.15 785171.99,3297005.51 785171.99,3297005.51 785189.03,3297003.55 785189.03,3297003.55 785205.62,3297001.63 785205.62,3297001.63 785222.29,3296999.73 785222.29,3296999.73 785239.00,3296997.82 785239.00,3296997.82 785256.74,3296995.78 785256.74,3296995.78 785271.08,3296994.15 785271.08,3296994.15 785288.04,3296992.20 785288.04,3296992.20 785306.01,3296990.15 785306.01,3296990.15 785327.93,3296987.68 785327.93,3296987.68 785344.76,3296985.77 785344.76,3296985.77 785369.15,3296982.96 785369.15,3296982.96 785388.31,3296980.78 785388.31,3296980.78 785409.14,3296978.41 785409.14,3296978.41 785421.70,3296976.98">
        <lane index="0" width="3.66" />
        <lane index="1" width="3.66" />
        <lane index="2" width="3.66" />
        <lane index="3" width="3.66" type="shoulder" disallow="all" />
    </edge>
    <edge id="merge_zone_1" from="j_merge_start_1" to="j_merge_end_1" numLanes="5" speed="13.89" name="Merge zone 1" type="highway_merge" shape="785421.70,3296976.98 785429.99,3296976.02 785429.99,3296976.02 785437.25,3296975.03">
        <lane index="0" width="3.66" />
        <lane index="1" width="3.66" />
        <lane index="2" width="3.66" />
        <lane index="3" width="3.66" />
        <lane index="4" width="3.66" type="shoulder" disallow="all" />
    </edge>
</edges>