<?xml version='1.0' encoding='utf-8'?>
<nodes>
    <node id="node_21_start" x="785108.900867964" y="3296984.6639958257" type="priority" />
    <node id="node_23_start" x="785462.984499635" y="3296957.427611922" type="priority" />
    <node id="node_23_end" x="785614.0035543685" y="3296943.842163047" type="priority" />
    <node id="node_24_start" x="785024.1994287746" y="3296994.280164191" type="priority" />
    <node id="node_24_end" x="785085.4165361245" y="3296987.271034112" type="priority" />
    <node id="node_25_start" x="784964.0486955151" y="3297001.2218756396" type="priority" />
    <node id="node_25_end" x="784999.0183198053" y="3296997.2406922933" type="priority" />
    <node id="node_3_end" x="785464.6615941147" y="3296971.914728641" type="priority" />
    <node id="node_4_end" x="785615.2766968003" y="3296954.9055812308" type="priority" />
    <node id="node_46_start" x="784934.6435231119" y="3297004.4983432186" type="priority" />
    <node id="node_5_end" x="786527.2429792397" y="3297089.236309628" type="priority" />
    <node id="node_53_end" x="790026.3717867553" y="3298160.962737924" type="priority" />
    <node id="node_781_start" x="782736.1673288811" y="3297257.374120973" type="priority" />
    <node id="node_782_end" x="782661.1679385148" y="3297266.915239108" type="priority" />
    <node id="node_785_start" x="784514.619833786" y="3297080.6140059605" type="priority" />
    <node id="node_785_end" x="785149.2349345847" y="3297008.1252826937" type="priority" />
    <node id="node_787_start" x="780686.0991717665" y="3297515.555129054" type="priority" />
    <node id="node_787_end" x="781689.3367130626" y="3297401.097119745" type="priority" />
    <node id="node_788_start" x="783347.1071234391" y="3297198.419438498" type="priority" />
    <node id="node_788_end" x="784458.5276134654" y="3297087.0259173806" type="priority" />
    <node id="node_791_start" x="782072.1849925634" y="3297324.8319262443" type="priority" />
    <node id="node_791_end" x="782132.7323606189" y="3297319.0001814417" type="priority" />
    <node id="node_793_end" x="781745.3464694687" y="3297394.7053365563" type="priority" />
    <node id="node_797_start" x="783345.2178775407" y="3297175.1339213825" type="priority" />
    <node id="node_797_end" x="783431.3505642175" y="3297166.8747045067" type="priority" />
    <node id="node_800_start" x="782135.8216335541" y="3297339.592111793" type="priority" />
    <node id="node_54_end" x="790106.0614124094" y="3298185.4911601376" type="priority" />
    <node id="node_786_start" x="780615.1285138148" y="3297523.6065945923" type="priority" />
    <node id="junction_8" x="0.0" y="0.0" type="priority" />
    <node id="junction_64" x="0.0" y="0.0" type="priority" />
    <node id="junction_59" x="0.0" y="0.0" type="priority" />
    <node id="junction_108" x="0.0" y="0.0" type="priority" />
    <node id="junction_4" x="0.0" y="0.0" type="priority" />
    <node id="junction_10" x="0.0" y="0.0" type="priority" />
    <node id="junction_11" x="0.0" y="0.0" type="priority" />
    <node id="junction_67" x="0.0" y="0.0" type="priority" />
    <node id="junction_60" x="0.0" y="0.0" type="priority" />
    <node id="junction_9" x="0.0" y="0.0" type="priority" />
    <node id="junction_65" x="0.0" y="0.0" type="priority" />
    <node id="junction_5" x="0.0" y="0.0" type="priority" />
    <node id="junction_68" x="0.0" y="0.0" type="priority" />
    <node id="junction_12" x="0.0" y="0.0" type="priority" />
    <node id="junction_66" x="0.0" y="0.0" type="priority" />
    <node id="junction_61" x="0.0" y="0.0" type="priority" />
    <node id="junction_13" x="0.0" y="0.0" type="priority" />
    <node id="junction_69" x="0.0" y="0.0" type="priority" />
    <node id="junction_15" x="0.0" y="0.0" type="priority" />
    <node id="junction_16" x="0.0" y="0.0" type="priority" />
    <node id="junction_71" x="0.0" y="0.0" type="priority" />
    <node id="junction_14" x="0.0" y="0.0" type="priority" />
    <node id="junction_72" x="0.0" y="0.0" type="priority" />
    <node id="junction_70" x="0.0" y="0.0" type="priority" />
    <node id="junction_73" x="0.0" y="0.0" type="priority" />
    <node id="junction_17" x="0.0" y="0.0" type="priority" />
    <node id="junction_18" x="0.0" y="0.0" type="priority" />
    <node id="junction_19" x="0.0" y="0.0" type="priority" />
    <node id="junction_74" x="0.0" y="0.0" type="priority" />
    <node id="junction_76" x="0.0" y="0.0" type="priority" />
    <node id="junction_7" x="0.0" y="0.0" type="priority" />
    <node id="junction_20" x="0.0" y="0.0" type="priority" />
    <node id="junction_75" x="0.0" y="0.0" type="priority" />
    <node id="junction_21" x="0.0" y="0.0" type="priority" />
    <node id="junction_77" x="0.0" y="0.0" type="priority" />
    <node id="junction_78" x="0.0" y="0.0" type="priority" />
    <node id="junction_62" x="0.0" y="0.0" type="priority" />
    <node id="junction_22" x="0.0" y="0.0" type="priority" />
    <node id="junction_79" x="0.0" y="0.0" type="priority" />
    <node id="junction_23" x="0.0" y="0.0" type="priority" />
    <node id="junction_3" x="0.0" y="0.0" type="priority" />
    <node id="junction_80" x="0.0" y="0.0" type="priority" />
    <node id="junction_24" x="0.0" y="0.0" type="priority" />
    <node id="junction_25" x="0.0" y="0.0" type="priority" />
    <node id="junction_81" x="0.0" y="0.0" type="priority" />
    <node id="junction_26" x="0.0" y="0.0" type="priority" />
    <node id="junction_82" x="0.0" y="0.0" type="priority" />
    <node id="junction_27" x="0.0" y="0.0" type="priority" />
    <node id="junction_83" x="0.0" y="0.0" type="priority" />
    <node id="junction_28" x="0.0" y="0.0" type="priority" />
    <node id="junction_84" x="0.0" y="0.0" type="priority" />
    <node id="junction_85" x="0.0" y="0.0" type="priority" />
    <node id="junction_29" x="0.0" y="0.0" type="priority" />
    <node id="junction_86" x="0.0" y="0.0" type="priority" />
    <node id="junction_87" x="0.0" y="0.0" type="priority" />
    <node id="junction_30" x="0.0" y="0.0" type="priority" />
    <node id="junction_6" x="0.0" y="0.0" type="priority" />
    <node id="junction_88" x="0.0" y="0.0" type="priority" />
    <node id="junction_31" x="0.0" y="0.0" type="priority" />
    <node id="junction_89" x="0.0" y="0.0" type="priority" />
    <node id="junction_32" x="0.0" y="0.0" type="priority" />
    <node id="junction_33" x="0.0" y="0.0" type="priority" />
    <node id="junction_91" x="0.0" y="0.0" type="priority" />
    <node id="junction_34" x="0.0" y="0.0" type="priority" />
    <node id="junction_90" x="0.0" y="0.0" type="priority" />
    <node id="junction_92" x="0.0" y="0.0" type="priority" />
    <node id="junction_37" x="0.0" y="0.0" type="priority" />
    <node id="junction_36" x="0.0" y="0.0" type="priority" />
    <node id="junction_35" x="0.0" y="0.0" type="priority" />
    <node id="junction_94" x="0.0" y="0.0" type="priority" />
    <node id="junction_93" x="0.0" y="0.0" type="priority" />
    <node id="junction_38" x="0.0" y="0.0" type="priority" />
    <node id="junction_95" x="0.0" y="0.0" type="priority" />
    <node id="junction_96" x="0.0" y="0.0" type="priority" />
    <node id="junction_39" x="0.0" y="0.0" type="priority" />
    <node id="junction_111" x="0.0" y="0.0" type="priority" />
    <node id="junction_99" x="0.0" y="0.0" type="priority" />
    <node id="junction_97" x="0.0" y="0.0" type="priority" />
    <node id="junction_41" x="0.0" y="0.0" type="priority" />
    <node id="junction_40" x="0.0" y="0.0" type="priority" />
    <node id="junction_106" x="0.0" y="0.0" type="priority" />
    <node id="junction_100" x="0.0" y="0.0" type="priority" />
    <node id="junction_42" x="0.0" y="0.0" type="priority" />
    <node id="junction_101" x="0.0" y="0.0" type="priority" />
    <node id="junction_47" x="0.0" y="0.0" type="priority" />
    <node id="junction_43" x="0.0" y="0.0" type="priority" />
    <node id="junction_98" x="0.0" y="0.0" type="priority" />
    <node id="junction_103" x="0.0" y="0.0" type="priority" />
    <node id="junction_104" x="0.0" y="0.0" type="priority" />
    <node id="junction_63" x="0.0" y="0.0" type="priority" />
    <node id="junction_105" x="0.0" y="0.0" type="priority" />
    <node id="junction_45" x="0.0" y="0.0" type="priority" />
    <node id="junction_46" x="0.0" y="0.0" type="priority" />
    <node id="junction_48" x="0.0" y="0.0" type="priority" />
    <node id="junction_107" x="0.0" y="0.0" type="priority" />
    <node id="junction_49" x="0.0" y="0.0" type="priority" />
    <node id="junction_109" x="0.0" y="0.0" type="priority" />
    <node id="junction_50" x="0.0" y="0.0" type="priority" />
    <node id="junction_51" x="0.0" y="0.0" type="priority" />
    <node id="junction_110" x="0.0" y="0.0" type="priority" />
    <node id="junction_52" x="0.0" y="0.0" type="priority" />
    <node id="junction_53" x="0.0" y="0.0" type="priority" />
    <node id="junction_113" x="0.0" y="0.0" type="priority" />
    <node id="junction_54" x="0.0" y="0.0" type="priority" />
    <node id="junction_55" x="0.0" y="0.0" type="priority" />
    <node id="junction_57" x="0.0" y="0.0" type="priority" />
    <node id="junction_114" x="0.0" y="0.0" type="priority" />
    <node id="junction_56" x="0.0" y="0.0" type="priority" />
    <node id="junction_2" x="786298.1981691171" y="3297020.192497559" type="priority" />
    <node id="junction_58" x="787604.5759858297" y="3297414.405756371" type="priority" />
    <node id="junction_44" x="782322.9856195928" y="3297304.75301617" type="priority" />
    <node id="junction_102" x="783149.8204417365" y="3297209.2780350684" type="priority" />
    <node id="j_merge_start_1" x="785421.7047050553" y="3296976.9780187216" type="priority" />
    <node id="j_merge_end_1" x="785437.245828191" y="3296975.0326119703" type="priority" />
</nodes>