<?xml version="1.0" encoding="UTF-8"?>

<!-- generated on 2025-10-19 17:35:18 by Eclipse SUMO netconvert Version 1.23.1
<netconvertConfiguration xmlns:xsi="http://www.w3.org/2001/XMLSchema-instance" xsi:noNamespaceSchemaLocation="http://sumo.dlr.de/xsd/netconvertConfiguration.xsd">

    <input>
        <node-files value="/home/sdai/harry/TeraSim/jupiter/eb/jupiter_eb_tiles/tile_0139/tile_0139.nod.xml"/>
        <edge-files value="/home/sdai/harry/TeraSim/jupiter/eb/jupiter_eb_tiles/tile_0139/tile_0139.edg.xml"/>
        <connection-files value="/home/sdai/harry/TeraSim/jupiter/eb/jupiter_eb_tiles/tile_0139/tile_0139.con.xml"/>
    </input>

    <output>
        <output-file value="/home/sdai/harry/TeraSim/jupiter/eb/jupiter_eb_tiles/tile_0139/tile_0139.net.xml"/>
        <output.street-names value="true"/>
        <output.original-names value="true"/>
    </output>

    <processing>
        <geometry.remove value="false"/>
        <geometry.min-dist value="0.5"/>
        <edges.join value="false"/>
    </processing>

    <junctions>
        <no-internal-links value="false"/>
        <no-turnarounds value="true"/>
        <junctions.join value="true"/>
        <junctions.join-dist value="10"/>
        <junctions.corner-detail value="5"/>
        <junctions.internal-link-detail value="5"/>
        <junctions.limit-turn-speed value="5.5"/>
        <rectangular-lane-cut value="true"/>
        <check-lane-foes.all value="true"/>
    </junctions>

</netconvertConfiguration>
-->

<net version="1.20" junctionCornerDetail="5" junctionLinkDetail="5" rectangularLaneCut="true" limitTurnSpeed="5.50" checkLaneFoesAll="1" xmlns:xsi="http://www.w3.org/2001/XMLSchema-instance" xsi:noNamespaceSchemaLocation="http://sumo.dlr.de/xsd/net_file.xsd">

    <location netOffset="-780686.10,-3296939.51" convBoundary="0.00,0.00,9340.27,1221.45" origBoundary="0.00,0.00,790106.06,3298185.49" projParameter="!"/>

    <edge id=":j_merge_end_1_0" function="internal">
        <lane id=":j_merge_end_1_0_0" index="0" disallow="all" speed="13.89" length="3.06" width="3.66" shape="4748.93,19.20 4750.94,33.70"/>
        <lane id=":j_merge_end_1_0_1" index="1" speed="13.89" length="3.06" width="3.66" shape="4749.42,22.83 4749.70,22.79"/>
        <lane id=":j_merge_end_1_0_2" index="2" speed="13.89" length="3.06" width="3.66" shape="4749.91,26.45 4750.12,26.43"/>
        <lane id=":j_merge_end_1_0_3" index="3" speed="13.89" length="3.06" width="3.66" shape="4750.41,30.08 4750.53,30.07"/>
        <lane id=":j_merge_end_1_0_4" index="4" disallow="all" speed="13.89" length="3.06" width="3.66" shape="4750.90,33.71 4750.94,33.70"/>
    </edge>
    <edge id=":j_merge_start_1_0" function="internal">
        <lane id=":j_merge_start_1_0_0" index="0" speed="13.89" length="311.80" width="3.66" shape="4422.70,43.32 4733.71,21.11"/>
    </edge>
    <edge id=":j_merge_start_1_1" function="internal">
        <lane id=":j_merge_start_1_1_0" index="0" speed="13.89" length="292.68" width="3.66" shape="4443.34,58.04 4734.13,24.75"/>
        <lane id=":j_merge_start_1_1_1" index="1" speed="13.89" length="292.68" width="3.66" shape="4443.77,61.67 4734.55,28.38"/>
        <lane id=":j_merge_start_1_1_2" index="2" speed="13.89" length="292.68" width="3.66" shape="4444.19,65.31 4734.97,32.02"/>
        <lane id=":j_merge_start_1_1_3" index="3" disallow="all" speed="13.89" length="292.68" width="3.66" shape="4444.62,68.94 4735.39,35.65"/>
    </edge>
    <edge id=":junction_102_0" function="internal">
        <lane id=":junction_102_0_0" index="0" speed="13.89" length="83.30" width="3.66" shape="2407.80,266.67 2490.38,255.71"/>
    </edge>
    <edge id=":junction_102_1" function="internal">
        <lane id=":junction_102_1_0" index="0" speed="13.89" length="83.75" width="3.66" shape="2407.80,266.67 2491.32,259.53"/>
        <lane id=":junction_102_1_1" index="1" speed="13.89" length="83.75" width="3.66" shape="2408.14,270.31 2491.61,263.18"/>
        <lane id=":junction_102_1_2" index="2" speed="13.89" length="83.75" width="3.66" shape="2408.48,273.95 2491.90,266.82"/>
        <lane id=":junction_102_1_3" index="3" disallow="all" speed="13.89" length="83.75" width="3.66" shape="2408.82,277.60 2492.19,270.47"/>
    </edge>
    <edge id=":junction_2_0" function="internal">
        <lane id=":junction_2_0_0" index="0" speed="13.89" length="197.02" width="3.66" shape="5521.20,40.06 5710.07,96.68"/>
        <lane id=":junction_2_0_1" index="1" speed="13.89" length="197.02" width="3.66" shape="5520.24,43.59 5709.01,100.18"/>
        <lane id=":junction_2_0_2" index="2" speed="13.89" length="197.02" width="3.66" shape="5519.28,47.12 5707.95,103.69"/>
        <lane id=":junction_2_0_3" index="3" disallow="all" speed="13.89" length="197.02" width="3.66" shape="5518.32,50.65 5706.89,107.19"/>
    </edge>
    <edge id=":junction_44_0" function="internal">
        <lane id=":junction_44_0_0" index="0" speed="13.89" length="148.98" width="3.66" shape="1585.98,360.72 1733.89,343.30"/>
        <lane id=":junction_44_0_1" index="1" speed="13.89" length="148.98" width="3.66" shape="1585.98,360.72 1734.38,346.93"/>
    </edge>
    <edge id=":junction_44_2" function="internal">
        <lane id=":junction_44_2_0" index="0" speed="13.89" length="148.70" width="3.66" shape="1586.60,364.57 1733.89,343.30"/>
        <lane id=":junction_44_2_1" index="1" speed="13.89" length="148.70" width="3.66" shape="1587.16,368.19 1734.38,346.93"/>
        <lane id=":junction_44_2_2" index="2" speed="13.89" length="148.70" width="3.66" shape="1587.73,371.81 1734.86,350.56"/>
        <lane id=":junction_44_2_3" index="3" disallow="all" speed="13.89" length="148.70" width="3.66" shape="1588.29,375.42 1735.35,354.19"/>
    </edge>
    <edge id=":junction_58_0" function="internal">
        <lane id=":junction_58_0_0" index="0" speed="13.89" length="113.56" width="3.66" shape="6867.84,446.13 6976.49,479.12"/>
        <lane id=":junction_58_0_1" index="1" speed="13.89" length="113.56" width="3.66" shape="6866.78,449.64 6975.44,482.63"/>
        <lane id=":junction_58_0_2" index="2" speed="13.89" length="113.56" width="3.66" shape="6865.72,453.14 6974.39,486.13"/>
        <lane id=":junction_58_0_3" index="3" disallow="all" speed="13.89" length="113.56" width="3.66" shape="6864.67,456.65 6973.34,489.64"/>
    </edge>
    <edge id=":node_21_start_0" function="internal">
        <lane id=":node_21_start_0_0" index="0" speed="13.89" length="1.41" width="3.66" shape="4420.36,36.21 4421.84,36.05"/>
        <lane id=":node_21_start_0_1" index="1" speed="13.89" length="1.41" width="3.66" shape="4420.77,39.85 4422.17,39.69"/>
        <lane id=":node_21_start_0_2" index="2" speed="13.89" length="1.41" width="3.66" shape="4421.17,43.49 4422.50,43.34"/>
    </edge>
    <edge id=":node_24_end_0" function="internal">
        <lane id=":node_24_end_0_0" index="0" speed="13.89" length="3.00" width="3.66" shape="4396.80,38.84 4399.79,38.50"/>
        <lane id=":node_24_end_0_1" index="1" speed="13.89" length="3.00" width="3.66" shape="4397.22,42.48 4400.20,42.14"/>
        <lane id=":node_24_end_0_2" index="2" speed="13.89" length="3.00" width="3.66" shape="4397.63,46.11 4400.60,45.78"/>
    </edge>
    <edge id=":node_24_start_0" function="internal">
        <lane id=":node_24_start_0_0" index="0" speed="13.89" length="3.00" width="3.66" shape="4335.55,45.86 4338.54,45.51"/>
        <lane id=":node_24_start_0_1" index="1" speed="13.89" length="3.00" width="3.66" shape="4335.98,49.49 4338.96,49.15"/>
        <lane id=":node_24_start_0_2" index="2" speed="13.89" length="3.00" width="3.66" shape="4336.41,53.13 4339.37,52.78"/>
    </edge>
    <edge id=":node_25_end_0" function="internal">
        <lane id=":node_25_end_0_0" index="0" speed="13.89" length="3.00" width="3.66" shape="4310.39,48.81 4313.35,48.47"/>
        <lane id=":node_25_end_0_1" index="1" speed="13.89" length="3.00" width="3.66" shape="4310.80,52.45 4313.78,52.10"/>
        <lane id=":node_25_end_0_2" index="2" speed="13.89" length="3.00" width="3.66" shape="4311.21,56.08 4314.21,55.74"/>
    </edge>
    <edge id=":node_25_start_0" function="internal">
        <lane id=":node_25_start_0_0" index="0" speed="13.89" length="3.00" width="3.66" shape="4275.44,52.78 4278.41,52.45"/>
        <lane id=":node_25_start_0_1" index="1" speed="13.89" length="3.00" width="3.66" shape="4275.85,56.42 4278.83,56.08"/>
        <lane id=":node_25_start_0_2" index="2" speed="13.89" length="3.00" width="3.66" shape="4276.25,60.06 4279.24,59.72"/>
    </edge>
    <edge id=":node_3_end_0" function="internal">
        <lane id=":node_3_end_0_0" index="0" speed="13.89" length="3.27" width="3.66" shape="4775.16,16.21 4778.42,15.94"/>
    </edge>
    <edge id=":node_3_end_1" function="internal">
        <lane id=":node_3_end_1_0" index="0" speed="13.89" length="3.00" width="3.66" shape="4775.57,19.85 4778.55,19.51"/>
        <lane id=":node_3_end_1_1" index="1" speed="13.89" length="3.00" width="3.66" shape="4775.99,23.48 4778.97,23.15"/>
        <lane id=":node_3_end_1_2" index="2" speed="13.89" length="3.00" width="3.66" shape="4776.40,27.12 4779.38,26.78"/>
    </edge>
    <edge id=":node_4_end_0" function="internal">
        <lane id=":node_4_end_0_0" index="0" speed="13.89" length="8.05" width="3.66" shape="4923.69,2.86 4931.71,2.22"/>
    </edge>
    <edge id=":node_4_end_1" function="internal">
        <lane id=":node_4_end_1_0" index="0" speed="13.89" length="8.00" width="3.66" shape="4923.76,3.12 4931.71,2.22"/>
        <lane id=":node_4_end_1_1" index="1" speed="13.89" length="8.00" width="3.66" shape="4924.17,6.76 4932.12,5.86"/>
        <lane id=":node_4_end_1_2" index="2" speed="13.89" length="8.00" width="3.66" shape="4924.58,10.39 4932.53,9.50"/>
    </edge>
    <edge id=":node_5_end_0" function="internal">
        <lane id=":node_5_end_0_0" index="0" speed="13.89" length="0.30" width="3.66" shape="5845.76,133.92 5846.05,134.01"/>
        <lane id=":node_5_end_0_1" index="1" speed="13.89" length="0.30" width="3.66" shape="5844.70,137.42 5844.99,137.51"/>
        <lane id=":node_5_end_0_2" index="2" speed="13.89" length="0.30" width="3.66" shape="5843.64,140.93 5843.93,141.01"/>
        <lane id=":node_5_end_0_3" index="3" speed="13.89" length="0.30" width="3.66" shape="5842.58,144.43 5842.87,144.52"/>
    </edge>
    <edge id=":node_781_start_0" function="internal">
        <lane id=":node_781_start_0_0" index="0" speed="13.89" length="0.30" width="3.66" shape="2048.45,305.15 2048.75,305.12"/>
        <lane id=":node_781_start_0_1" index="1" speed="13.89" length="0.30" width="3.66" shape="2048.87,308.79 2049.17,308.75"/>
        <lane id=":node_781_start_0_2" index="2" speed="13.89" length="0.30" width="3.66" shape="2049.29,312.42 2049.59,312.39"/>
    </edge>
    <edge id=":node_782_end_0" function="internal">
        <lane id=":node_782_end_0_0" index="0" speed="13.89" length="0.30" width="3.66" shape="1973.44,314.70 1973.74,314.67"/>
        <lane id=":node_782_end_0_1" index="1" speed="13.89" length="0.30" width="3.66" shape="1973.86,318.34 1974.16,318.30"/>
        <lane id=":node_782_end_0_2" index="2" speed="13.89" length="0.30" width="3.66" shape="1974.29,321.97 1974.59,321.94"/>
    </edge>
    <edge id=":node_785_end_0" function="internal">
        <lane id=":node_785_end_0_0" index="0" speed="13.89" length="17.13" width="3.66" shape="4460.16,56.07 4443.14,58.06"/>
        <lane id=":node_785_end_0_1" index="1" speed="13.89" length="17.13" width="3.66" shape="4460.58,59.70 4443.57,61.70"/>
        <lane id=":node_785_end_0_2" index="2" speed="13.89" length="17.13" width="3.66" shape="4461.00,63.34 4443.99,65.33"/>
    </edge>
    <edge id=":node_785_start_0" function="internal">
        <lane id=":node_785_start_0_0" index="0" speed="13.89" length="0.30" width="3.66" shape="3826.93,128.39 3827.24,128.35"/>
        <lane id=":node_785_start_0_1" index="1" speed="13.89" length="0.30" width="3.66" shape="3827.35,132.02 3827.64,131.99"/>
        <lane id=":node_785_start_0_2" index="2" speed="13.89" length="0.30" width="3.66" shape="3827.76,135.66 3828.05,135.63"/>
    </edge>
    <edge id=":node_787_end_0" function="internal">
        <lane id=":node_787_end_0_0" index="0" speed="13.89" length="0.30" width="3.66" shape="1001.62,448.88 1001.92,448.85"/>
        <lane id=":node_787_end_0_1" index="1" speed="13.89" length="0.30" width="3.66" shape="1002.04,452.52 1002.34,452.48"/>
        <lane id=":node_787_end_0_2" index="2" speed="13.89" length="0.30" width="3.66" shape="1002.46,456.15 1002.76,456.12"/>
    </edge>
    <edge id=":node_788_end_0" function="internal">
        <lane id=":node_788_end_0_0" index="0" speed="13.89" length="0.30" width="3.66" shape="3770.83,134.81 3771.12,134.78"/>
        <lane id=":node_788_end_0_1" index="1" speed="13.89" length="0.30" width="3.66" shape="3771.24,138.45 3771.54,138.41"/>
        <lane id=":node_788_end_0_2" index="2" speed="13.89" length="0.30" width="3.66" shape="3771.66,142.08 3771.96,142.05"/>
    </edge>
    <edge id=":node_788_start_0" function="internal">
        <lane id=":node_788_start_0_0" index="0" speed="13.89" length="3.00" width="3.66" shape="2658.50,246.26 2661.49,246.02"/>
        <lane id=":node_788_start_0_1" index="1" speed="13.89" length="3.00" width="3.66" shape="2658.79,249.91 2661.78,249.67"/>
        <lane id=":node_788_start_0_2" index="2" speed="13.89" length="3.00" width="3.66" shape="2659.08,253.56 2662.07,253.32"/>
    </edge>
    <edge id=":node_791_end_0" function="internal">
        <lane id=":node_791_end_0_0" index="0" speed="13.89" length="0.10" width="3.66" shape="1446.46,377.67 1446.46,377.67"/>
    </edge>
    <edge id=":node_793_end_0" function="internal">
        <lane id=":node_793_end_0_0" index="0" speed="13.89" length="0.30" width="3.66" shape="1057.62,442.49 1057.91,442.46"/>
        <lane id=":node_793_end_0_1" index="1" speed="13.89" length="0.30" width="3.66" shape="1058.04,446.13 1058.34,446.09"/>
        <lane id=":node_793_end_0_2" index="2" speed="13.89" length="0.30" width="3.66" shape="1058.46,449.76 1058.77,449.73"/>
    </edge>
    <edge id=":node_797_start_0" function="internal">
        <lane id=":node_797_start_0_0" index="0" speed="13.89" length="0.30" width="3.66" shape="2658.76,233.82 2659.05,233.79"/>
    </edge>
    <edge id=":node_800_start_0" function="internal">
        <lane id=":node_800_start_0_0" index="0" speed="13.89" length="3.00" width="3.66" shape="1446.15,387.69 1449.10,387.20"/>
        <lane id=":node_800_start_0_1" index="1" speed="13.89" length="3.00" width="3.66" shape="1446.75,391.30 1449.70,390.81"/>
        <lane id=":node_800_start_0_2" index="2" speed="13.89" length="3.00" width="3.66" shape="1447.35,394.91 1450.30,394.42"/>
    </edge>

    <edge id="21.0" from="node_21_start" to="j_merge_start_1" priority="-1" type="town" shape="4422.80,45.15 4486.82,39.28">
        <lane id="21.0_0" index="0" disallow="all" speed="13.89" length="0.20" width="3.66" shape="4421.50,32.41 4421.70,32.39" type="shoulder"/>
        <lane id="21.0_1" index="1" speed="13.89" length="0.20" width="3.66" shape="4421.84,36.05 4422.03,36.03"/>
        <lane id="21.0_2" index="2" speed="13.89" length="0.20" width="3.66" shape="4422.17,39.69 4422.37,39.68"/>
        <lane id="21.0_3" index="3" speed="13.89" length="0.20" width="3.66" shape="4422.50,43.34 4422.70,43.32"/>
    </edge>
    <edge id="23.0" from="node_3_end" to="node_4_end" priority="-1" type="town" shape="4776.88,17.92 4857.22,10.54 4927.90,4.33">
        <lane id="23.0_0" index="0" disallow="all" speed="13.89" length="145.87" width="3.66" shape="4778.08,12.30 4856.73,5.07 4923.37,-0.78" type="shoulder"/>
        <lane id="23.0_1" index="1" speed="13.89" length="145.87" width="3.66" shape="4778.42,15.94 4857.06,8.72 4923.69,2.86"/>
    </edge>
    <edge id="24.0" from="node_24_start" to="node_24_end" priority="-1" type="town">
        <lane id="24.0_0" index="0" disallow="all" speed="13.89" length="58.64" width="3.66" shape="4338.13,41.87 4396.38,35.20" type="shoulder"/>
        <lane id="24.0_1" index="1" speed="13.89" length="58.64" width="3.66" shape="4338.54,45.51 4396.80,38.84"/>
        <lane id="24.0_2" index="2" speed="13.89" length="58.64" width="3.66" shape="4338.96,49.15 4397.22,42.48"/>
        <lane id="24.0_3" index="3" speed="13.89" length="58.64" width="3.66" shape="4339.37,52.78 4397.63,46.11"/>
    </edge>
    <edge id="25.0" from="node_25_start" to="node_25_end" priority="-1" type="town">
        <lane id="25.0_0" index="0" disallow="all" speed="13.89" length="32.18" width="3.66" shape="4278.00,48.81 4309.97,45.17" type="shoulder"/>
        <lane id="25.0_1" index="1" speed="13.89" length="32.18" width="3.66" shape="4278.41,52.45 4310.39,48.81"/>
        <lane id="25.0_2" index="2" speed="13.89" length="32.18" width="3.66" shape="4278.83,56.08 4310.80,52.45"/>
        <lane id="25.0_3" index="3" speed="13.89" length="32.18" width="3.66" shape="4279.24,59.72 4311.21,56.08"/>
    </edge>
    <edge id="3.0" from="j_merge_end_1" to="node_3_end" priority="-1" type="town">
        <lane id="3.0_0" index="0" speed="13.89" length="26.04" width="3.66" shape="4749.29,19.16 4775.16,16.21"/>
        <lane id="3.0_1" index="1" speed="13.89" length="26.04" width="3.66" shape="4749.70,22.79 4775.57,19.85"/>
        <lane id="3.0_2" index="2" speed="13.89" length="26.04" width="3.66" shape="4750.12,26.43 4775.99,23.48"/>
        <lane id="3.0_3" index="3" speed="13.89" length="26.04" width="3.66" shape="4750.53,30.07 4776.40,27.12"/>
        <lane id="3.0_4" index="4" disallow="all" speed="13.89" length="26.04" width="3.66" shape="4750.94,33.70 4776.81,30.76" type="shoulder"/>
    </edge>
    <edge id="4.0" from="node_3_end" to="node_4_end" priority="-1" type="town">
        <lane id="4.0_0" index="0" speed="13.89" length="146.13" width="3.66" shape="4778.55,19.51 4923.76,3.12"/>
        <lane id="4.0_1" index="1" speed="13.89" length="146.13" width="3.66" shape="4778.97,23.15 4924.17,6.76"/>
        <lane id="4.0_2" index="2" speed="13.89" length="146.13" width="3.66" shape="4779.38,26.78 4924.58,10.39"/>
        <lane id="4.0_3" index="3" disallow="all" speed="13.89" length="146.13" width="3.66" shape="4779.79,30.42 4924.99,14.03" type="shoulder"/>
    </edge>
    <edge id="44.0" from="node_24_end" to="node_21_start" priority="-1" type="town">
        <lane id="44.0_0" index="0" speed="13.89" length="20.70" width="3.66" shape="4399.79,38.50 4420.36,36.21"/>
        <lane id="44.0_1" index="1" speed="13.89" length="20.70" width="3.66" shape="4400.20,42.14 4420.77,39.85"/>
        <lane id="44.0_2" index="2" speed="13.89" length="20.70" width="3.66" shape="4400.60,45.78 4421.17,43.49"/>
    </edge>
    <edge id="45.0" from="node_25_end" to="node_24_start" priority="-1" type="town">
        <lane id="45.0_0" index="0" speed="13.89" length="22.35" width="3.66" shape="4313.35,48.47 4335.55,45.86"/>
        <lane id="45.0_1" index="1" speed="13.89" length="22.35" width="3.66" shape="4313.78,52.10 4335.98,49.49"/>
        <lane id="45.0_2" index="2" speed="13.89" length="22.35" width="3.66" shape="4314.21,55.74 4336.41,53.13"/>
    </edge>
    <edge id="46.0" from="node_46_start" to="node_25_start" priority="-1" type="town">
        <lane id="46.0_0" index="0" speed="13.89" length="28.09" width="3.66" shape="4247.53,55.90 4275.44,52.78"/>
        <lane id="46.0_1" index="1" speed="13.89" length="28.09" width="3.66" shape="4247.93,59.53 4275.85,56.42"/>
        <lane id="46.0_2" index="2" speed="13.89" length="28.09" width="3.66" shape="4248.34,63.17 4276.25,60.06"/>
    </edge>
    <edge id="5.0" from="junction_2" to="node_5_end" priority="-1" type="town" shape="5706.36,108.94 5841.14,149.73">
        <lane id="5.0_0" index="0" disallow="all" speed="13.89" length="140.66" width="3.66" shape="5712.19,89.67 5846.82,130.42" type="shoulder"/>
        <lane id="5.0_1" index="1" speed="13.89" length="140.66" width="3.66" shape="5711.13,93.18 5845.76,133.92"/>
        <lane id="5.0_2" index="2" speed="13.89" length="140.66" width="3.66" shape="5710.07,96.68 5844.70,137.42"/>
        <lane id="5.0_3" index="3" speed="13.89" length="140.66" width="3.66" shape="5709.01,100.18 5843.64,140.93"/>
        <lane id="5.0_4" index="4" speed="13.89" length="140.66" width="3.66" shape="5707.95,103.69 5842.58,144.43"/>
        <lane id="5.0_5" index="5" disallow="all" speed="13.89" length="140.66" width="3.66" shape="5706.89,107.19 5841.52,147.93" type="shoulder"/>
    </edge>
    <edge id="50.0" from="node_4_end" to="junction_2" priority="-1" type="town" shape="4929.18,15.40 5012.06,6.04 5033.95,4.10 5071.80,1.68 5091.05,0.93 5143.75,0.00 5210.63,1.85 5236.32,3.35 5267.30,5.94 5298.68,9.10 5330.04,12.91 5357.37,16.96 5384.59,21.48 5442.84,33.41 5469.60,39.64 5488.11,44.35 5517.84,52.42">
        <lane id="50.0_0" index="0" disallow="all" speed="13.89" length="593.66" width="3.66" shape="4931.30,-1.41 5010.41,-10.35 5032.70,-12.32 5070.95,-14.77 5090.58,-15.53 5143.83,-16.47 5211.34,-14.61 5237.49,-13.08 5268.81,-10.46 5300.50,-7.27 5332.24,-3.41 5359.93,0.69 5387.59,5.28 5446.36,17.32 5473.50,23.64 5492.30,28.42 5522.16,36.53" type="shoulder"/>
        <lane id="50.0_1" index="1" speed="13.89" length="593.66" width="3.66" shape="4931.71,2.22 5010.78,-6.71 5032.98,-8.67 5071.14,-11.11 5090.69,-11.88 5143.81,-12.81 5211.18,-10.95 5237.23,-9.43 5268.48,-6.82 5300.10,-3.63 5331.75,0.21 5359.36,4.30 5386.93,8.88 5445.58,20.89 5472.63,27.19 5491.37,31.96 5521.20,40.06"/>
        <lane id="50.0_2" index="2" speed="13.89" length="593.66" width="3.66" shape="4932.12,5.86 5011.14,-3.06 5033.25,-5.02 5071.33,-7.46 5090.79,-8.22 5143.80,-9.15 5211.02,-7.29 5236.97,-5.78 5268.14,-3.17 5299.69,0.01 5331.26,3.84 5358.79,7.92 5386.26,12.48 5444.80,24.47 5471.77,30.75 5490.44,35.50 5520.24,43.59"/>
        <lane id="50.0_3" index="3" speed="13.89" length="593.66" width="3.66" shape="4932.53,9.50 5011.51,0.58 5033.53,-1.37 5071.52,-3.80 5090.90,-4.56 5143.78,-5.49 5210.87,-3.64 5236.71,-2.13 5267.80,0.47 5299.29,3.64 5330.77,7.47 5358.22,11.54 5385.59,16.08 5444.01,28.05 5470.90,34.31 5489.51,39.04 5519.28,47.12"/>
        <lane id="50.0_4" index="4" disallow="all" speed="13.89" length="593.66" width="3.66" shape="4932.94,13.13 5011.88,4.22 5033.81,2.28 5071.71,-0.15 5091.00,-0.90 5143.76,-1.83 5210.71,0.02 5236.45,1.52 5267.47,4.12 5298.88,7.28 5330.29,11.10 5357.65,15.15 5384.92,19.68 5443.23,31.62 5470.03,37.86 5488.58,42.58 5518.32,50.65" type="shoulder"/>
    </edge>
    <edge id="53.0" from="junction_58" to="node_53_end" priority="-1" type="town" shape="6972.81,491.39 7184.16,554.80 7404.45,621.30 7619.74,686.39 7727.64,718.98 7781.53,735.90 7835.16,753.44 8069.84,831.84 8187.19,870.94 8245.58,890.17 8305.03,909.16 9180.55,1173.72 9340.27,1221.45">
        <lane id="53.0_0" index="0" disallow="all" speed="13.89" length="2477.62" width="3.66" shape="6977.54,475.61 7188.91,539.03 7409.21,605.53 7624.51,670.62 7732.49,703.24 7786.56,720.22 7840.33,737.80 8075.06,816.22 8192.37,855.31 8250.66,874.50 8309.92,893.43 9185.29,1157.95 9344.99,1205.67" type="shoulder"/>
        <lane id="53.0_1" index="1" speed="13.89" length="2477.62" width="3.66" shape="6976.49,479.12 7187.85,542.53 7408.16,609.04 7623.45,674.13 7731.41,706.74 7785.44,723.70 7839.18,741.28 8073.90,819.69 8191.22,858.78 8249.53,877.98 8308.83,896.93 9184.24,1161.45 9343.94,1209.18"/>
        <lane id="53.0_2" index="2" speed="13.89" length="2477.62" width="3.66" shape="6975.44,482.63 7186.80,546.04 7407.10,612.54 7622.39,677.63 7730.33,710.24 7784.32,727.19 7838.03,744.75 8072.74,823.16 8190.07,862.25 8248.40,881.47 8307.75,900.42 9183.18,1164.96 9342.89,1212.68"/>
        <lane id="53.0_3" index="3" speed="13.89" length="2477.62" width="3.66" shape="6974.39,486.13 7185.74,549.54 7406.04,616.04 7621.33,681.13 7729.26,713.73 7783.21,730.67 7836.88,748.23 8071.58,826.63 8188.92,865.73 8247.27,884.95 8306.66,903.92 9182.13,1168.46 9341.85,1216.19"/>
        <lane id="53.0_4" index="4" disallow="all" speed="13.89" length="2477.62" width="3.66" shape="6973.34,489.64 7184.69,553.05 7404.98,619.55 7620.27,684.64 7728.18,717.23 7782.09,734.16 7835.74,751.70 8070.42,830.10 8187.77,869.20 8246.15,888.43 8305.57,907.41 9181.08,1171.97 9340.79,1219.70" type="shoulder"/>
    </edge>
    <edge id="6.0" from="node_5_end" to="junction_58" priority="-1" type="town" shape="5841.14,149.73 6437.95,329.85 6556.59,365.73 6864.14,458.40">
        <lane id="6.0_0" index="0" disallow="all" speed="13.89" length="1068.39" width="3.66" shape="5847.10,130.50 6443.77,310.58 6562.41,346.46 6869.95,439.13" type="shoulder"/>
        <lane id="6.0_1" index="1" speed="13.89" length="1068.39" width="3.66" shape="5846.05,134.01 6442.71,314.08 6561.35,349.96 6868.89,442.63"/>
        <lane id="6.0_2" index="2" speed="13.89" length="1068.39" width="3.66" shape="5844.99,137.51 6441.65,317.59 6560.29,353.47 6867.84,446.13"/>
        <lane id="6.0_3" index="3" speed="13.89" length="1068.39" width="3.66" shape="5843.93,141.01 6440.60,321.09 6559.24,356.97 6866.78,449.64"/>
        <lane id="6.0_4" index="4" speed="13.89" length="1068.39" width="3.66" shape="5842.87,144.52 6439.54,324.59 6558.18,360.47 6865.72,453.14"/>
        <lane id="6.0_5" index="5" disallow="all" speed="13.89" length="1068.39" width="3.66" shape="5841.82,148.02 6438.48,328.10 6557.12,363.98 6864.67,456.65" type="shoulder"/>
    </edge>
    <edge id="781.0" from="node_781_start" to="junction_102" priority="-1" type="town" shape="2050.07,317.86 2057.73,316.98 2074.46,315.26 2098.11,312.85 2117.88,310.94 2126.61,310.09 2144.23,308.05 2163.60,305.84 2185.00,303.39 2205.00,301.11 2224.93,298.85 2247.60,296.25 2270.65,293.64 2294.10,290.96 2319.46,288.19 2344.26,285.63 2368.42,283.21 2393.66,280.85 2408.99,279.42">
        <lane id="781.0_0" index="0" disallow="all" speed="13.89" length="361.03" width="3.66" shape="2048.34,301.48 2055.95,300.61 2072.79,298.88 2096.48,296.46 2116.29,294.55 2124.87,293.71 2142.35,291.69 2161.73,289.48 2183.13,287.03 2203.14,284.75 2223.06,282.49 2245.74,279.89 2268.79,277.28 2292.27,274.59 2317.72,271.81 2342.59,269.24 2366.83,266.82 2392.13,264.45 2407.46,263.02" type="shoulder"/>
        <lane id="781.0_1" index="1" speed="13.89" length="361.03" width="3.66" shape="2048.75,305.12 2056.34,304.24 2073.16,302.52 2096.85,300.10 2116.65,298.19 2125.25,297.35 2142.77,295.32 2162.15,293.11 2183.55,290.66 2203.55,288.38 2223.48,286.12 2246.15,283.52 2269.20,280.91 2292.68,278.23 2318.11,275.45 2342.96,272.89 2367.19,270.46 2392.47,268.10 2407.80,266.67"/>
        <lane id="781.0_2" index="2" speed="13.89" length="361.03" width="3.66" shape="2049.17,308.75 2056.74,307.88 2073.53,306.16 2097.21,303.74 2117.00,301.83 2125.64,300.99 2143.19,298.96 2162.56,296.75 2183.96,294.30 2203.97,292.02 2223.89,289.76 2246.56,287.16 2269.62,284.55 2293.08,281.87 2318.49,279.09 2343.33,276.53 2367.54,274.10 2392.81,271.74 2408.14,270.31"/>
        <lane id="781.0_3" index="3" speed="13.89" length="361.03" width="3.66" shape="2049.59,312.39 2057.14,311.52 2073.90,309.80 2097.57,307.39 2117.35,305.48 2126.03,304.63 2143.60,302.60 2162.98,300.39 2184.38,297.94 2204.38,295.66 2224.31,293.40 2246.98,290.80 2270.03,288.19 2293.49,285.50 2318.88,282.73 2343.71,280.17 2367.89,277.75 2393.15,275.38 2408.48,273.95"/>
        <lane id="781.0_4" index="4" disallow="all" speed="13.89" length="361.03" width="3.66" shape="2050.01,316.03 2057.53,315.16 2074.27,313.44 2097.93,311.03 2117.70,309.12 2126.42,308.27 2144.02,306.23 2163.39,304.02 2184.79,301.57 2204.79,299.29 2224.72,297.03 2247.39,294.43 2270.44,291.82 2293.90,289.14 2319.27,286.37 2344.08,283.81 2368.24,281.39 2393.49,279.03 2408.82,277.60" type="shoulder"/>
    </edge>
    <edge id="782.0" from="junction_44" to="node_782_end" priority="-1" type="town" shape="1735.59,356.00 1736.56,355.87 1751.58,353.85 1769.42,351.56 1784.89,349.58 1805.40,347.06 1823.62,344.82 1842.80,342.58 1864.25,340.10 1890.33,337.13 1915.08,334.26 1941.83,331.23 1964.48,328.64 1975.07,327.41">
        <lane id="782.0_0" index="0" disallow="all" speed="13.89" length="241.19" width="3.66" shape="1733.40,339.68 1734.37,339.55 1749.43,337.52 1767.33,335.22 1782.84,333.24 1803.39,330.71 1821.66,328.47 1840.90,326.22 1862.37,323.74 1888.45,320.77 1913.21,317.90 1939.97,314.87 1962.60,312.28 1973.02,311.07" type="shoulder"/>
        <lane id="782.0_1" index="1" speed="13.89" length="241.19" width="3.66" shape="1733.89,343.30 1734.85,343.17 1749.91,341.15 1767.79,338.85 1783.30,336.87 1803.84,334.35 1822.10,332.10 1841.32,329.86 1862.79,327.37 1888.87,324.40 1913.62,321.53 1940.38,318.50 1963.02,315.91 1973.44,314.70"/>
        <lane id="782.0_2" index="2" speed="13.89" length="241.19" width="3.66" shape="1734.38,346.93 1735.34,346.80 1750.39,344.78 1768.26,342.48 1783.75,340.50 1804.28,337.98 1822.53,335.73 1841.74,333.49 1863.21,331.01 1889.29,328.04 1914.04,325.17 1940.80,322.14 1963.44,319.55 1973.86,318.34"/>
        <lane id="782.0_3" index="3" speed="13.89" length="241.19" width="3.66" shape="1734.86,350.56 1735.83,350.43 1750.87,348.41 1768.72,346.11 1784.21,344.13 1804.73,341.61 1822.97,339.37 1842.17,337.13 1863.63,334.65 1889.70,331.68 1914.46,328.81 1941.21,325.78 1963.85,323.19 1974.29,321.97"/>
        <lane id="782.0_4" index="4" disallow="all" speed="13.89" length="241.19" width="3.66" shape="1735.35,354.19 1736.32,354.06 1751.34,352.04 1769.19,349.74 1784.66,347.76 1805.18,345.24 1823.40,343.00 1842.59,340.76 1864.04,338.28 1890.12,335.31 1914.87,332.44 1941.62,329.41 1964.27,326.82 1974.71,325.61" type="shoulder"/>
    </edge>