<?xml version='1.0' encoding='utf-8'?>
<nodes>
    <node id="node_484_start" x="700063.867558241" y="3286223.1293536923" type="priority" />
    <node id="node_484_end" x="700764.141908813" y="3286282.296660698" type="priority" />
    <node id="node_485_start" x="703021.6598201989" y="3286664.4715793203" type="priority" />
    <node id="node_485_end" x="703345.5784736415" y="3286728.0096891164" type="priority" />
    <node id="node_488_start" x="704848.3587117374" y="3286969.5125802" type="priority" />
    <node id="node_488_end" x="705576.425551247" y="3286997.9637353853" type="priority" />
    <node id="node_489_start" x="703169.8517559274" y="3286656.499566936" type="priority" />
    <node id="node_489_end" x="703348.2428281171" y="3286716.625735335" type="priority" />
    <node id="node_490_end" x="700854.3108422928" y="3286289.999496387" type="priority" />
    <node id="node_492_start" x="702581.0516378895" y="3286577.9467311352" type="priority" />
    <node id="node_492_end" x="702605.4239650174" y="3286582.6999298413" type="priority" />
    <node id="node_494_end" x="700906.7670013593" y="3286294.4015353746" type="priority" />
    <node id="node_495_end" x="702883.0137522679" y="3286637.2486224286" type="priority" />
    <node id="node_497_end" x="702584.2056269858" y="3286564.489698506" type="priority" />
    <node id="node_498_end" x="702953.184869602" y="3286651.144542949" type="priority" />
    <node id="node_501_end" x="702740.8870562434" y="3286581.1807063734" type="priority" />
    <node id="node_502_end" x="704766.0040686546" y="3286966.3372062775" type="priority" />
    <node id="node_513_end" x="705666.2718890527" y="3287001.4489296055" type="priority" />
    <node id="node_514_end" x="707824.7147159537" y="3286958.572553761" type="priority" />
    <node id="node_515_start" x="705980.0421001035" y="3287013.6794483867" type="priority" />
    <node id="node_518_start" x="708316.7373128128" y="3286746.9025560655" type="priority" />
    <node id="node_522_start" x="707818.0060726416" y="3286944.735576679" type="priority" />
    <node id="node_522_end" x="707948.2255336555" y="3286848.1483577853" type="priority" />
    <node id="node_523_start" x="708126.0607336176" y="3286828.979873194" type="priority" />
    <node id="node_525_end" x="705695.9365271197" y="3287002.59898457" type="priority" />
    <node id="node_526_end" x="707978.0212954371" y="3286892.8189655924" type="priority" />
    <node id="node_527_start" x="708186.8513069849" y="3286770.6107407534" type="priority" />
    <node id="node_527_end" x="708312.1765577527" y="3286735.777415985" type="priority" />
    <node id="node_529_start" x="705847.6011441747" y="3287008.4679810056" type="priority" />
    <node id="node_529_end" x="705938.2758881482" y="3287012.0435156506" type="priority" />
    <node id="node_530_start" x="708061.4180849647" y="3286856.829844322" type="priority" />
    <node id="node_532_end" x="708915.6478382002" y="3286489.111147822" type="priority" />
    <node id="node_491_start" x="699995.5490957942" y="3286217.4345375425" type="priority" />
    <node id="node_531_end" x="709120.9258118535" y="3286400.793737769" type="priority" />
    <node id="junction_8" x="0.0" y="0.0" type="priority" />
    <node id="junction_64" x="0.0" y="0.0" type="priority" />
    <node id="junction_59" x="0.0" y="0.0" type="priority" />
    <node id="junction_108" x="0.0" y="0.0" type="priority" />
    <node id="junction_4" x="0.0" y="0.0" type="priority" />
    <node id="junction_10" x="0.0" y="0.0" type="priority" />
    <node id="junction_11" x="0.0" y="0.0" type="priority" />
    <node id="junction_67" x="0.0" y="0.0" type="priority" />
    <node id="junction_60" x="0.0" y="0.0" type="priority" />
    <node id="junction_9" x="0.0" y="0.0" type="priority" />
    <node id="junction_65" x="0.0" y="0.0" type="priority" />
    <node id="junction_5" x="0.0" y="0.0" type="priority" />
    <node id="junction_68" x="0.0" y="0.0" type="priority" />
    <node id="junction_12" x="0.0" y="0.0" type="priority" />
    <node id="junction_66" x="0.0" y="0.0" type="priority" />
    <node id="junction_61" x="0.0" y="0.0" type="priority" />
    <node id="junction_13" x="0.0" y="0.0" type="priority" />
    <node id="junction_69" x="0.0" y="0.0" type="priority" />
    <node id="junction_2" x="0.0" y="0.0" type="priority" />
    <node id="junction_58" x="0.0" y="0.0" type="priority" />
    <node id="junction_15" x="0.0" y="0.0" type="priority" />
    <node id="junction_16" x="0.0" y="0.0" type="priority" />
    <node id="junction_71" x="0.0" y="0.0" type="priority" />
    <node id="junction_14" x="0.0" y="0.0" type="priority" />
    <node id="junction_72" x="0.0" y="0.0" type="priority" />
    <node id="junction_70" x="0.0" y="0.0" type="priority" />
    <node id="junction_1" x="0.0" y="0.0" type="priority" />
    <node id="junction_73" x="0.0" y="0.0" type="priority" />
    <node id="junction_17" x="0.0" y="0.0" type="priority" />
    <node id="junction_18" x="0.0" y="0.0" type="priority" />
    <node id="junction_19" x="0.0" y="0.0" type="priority" />
    <node id="junction_74" x="0.0" y="0.0" type="priority" />
    <node id="junction_76" x="0.0" y="0.0" type="priority" />
    <node id="junction_7" x="0.0" y="0.0" type="priority" />
    <node id="junction_20" x="0.0" y="0.0" type="priority" />
    <node id="junction_75" x="0.0" y="0.0" type="priority" />
    <node id="junction_21" x="0.0" y="0.0" type="priority" />
    <node id="junction_77" x="0.0" y="0.0" type="priority" />
    <node id="junction_78" x="0.0" y="0.0" type="priority" />
    <node id="junction_62" x="0.0" y="0.0" type="priority" />
    <node id="junction_22" x="0.0" y="0.0" type="priority" />
    <node id="junction_79" x="0.0" y="0.0" type="priority" />
    <node id="junction_23" x="0.0" y="0.0" type="priority" />
    <node id="junction_3" x="0.0" y="0.0" type="priority" />
    <node id="junction_80" x="0.0" y="0.0" type="priority" />
    <node id="junction_24" x="0.0" y="0.0" type="priority" />
    <node id="junction_25" x="0.0" y="0.0" type="priority" />
    <node id="junction_81" x="0.0" y="0.0" type="priority" />
    <node id="junction_26" x="0.0" y="0.0" type="priority" />
    <node id="junction_82" x="0.0" y="0.0" type="priority" />
    <node id="junction_27" x="0.0" y="0.0" type="priority" />
    <node id="junction_83" x="0.0" y="0.0" type="priority" />
    <node id="junction_28" x="0.0" y="0.0" type="priority" />
    <node id="junction_84" x="0.0" y="0.0" type="priority" />
    <node id="junction_85" x="0.0" y="0.0" type="priority" />
    <node id="junction_29" x="0.0" y="0.0" type="priority" />
    <node id="junction_86" x="0.0" y="0.0" type="priority" />
    <node id="junction_87" x="0.0" y="0.0" type="priority" />
    <node id="junction_30" x="0.0" y="0.0" type="priority" />
    <node id="junction_6" x="0.0" y="0.0" type="priority" />
    <node id="junction_33" x="0.0" y="0.0" type="priority" />
    <node id="junction_91" x="0.0" y="0.0" type="priority" />
    <node id="junction_34" x="0.0" y="0.0" type="priority" />
    <node id="junction_90" x="0.0" y="0.0" type="priority" />
    <node id="junction_92" x="0.0" y="0.0" type="priority" />
    <node id="junction_37" x="0.0" y="0.0" type="priority" />
    <node id="junction_36" x="0.0" y="0.0" type="priority" />
    <node id="junction_35" x="0.0" y="0.0" type="priority" />
    <node id="junction_94" x="0.0" y="0.0" type="priority" />
    <node id="junction_93" x="0.0" y="0.0" type="priority" />
    <node id="junction_38" x="0.0" y="0.0" type="priority" />
    <node id="junction_95" x="0.0" y="0.0" type="priority" />
    <node id="junction_96" x="0.0" y="0.0" type="priority" />
    <node id="junction_39" x="0.0" y="0.0" type="priority" />
    <node id="junction_111" x="0.0" y="0.0" type="priority" />
    <node id="junction_99" x="0.0" y="0.0" type="priority" />
    <node id="junction_97" x="0.0" y="0.0" type="priority" />
    <node id="junction_41" x="0.0" y="0.0" type="priority" />
    <node id="junction_40" x="0.0" y="0.0" type="priority" />
    <node id="junction_106" x="0.0" y="0.0" type="priority" />
    <node id="junction_100" x="0.0" y="0.0" type="priority" />
    <node id="junction_42" x="0.0" y="0.0" type="priority" />
    <node id="junction_101" x="0.0" y="0.0" type="priority" />
    <node id="junction_47" x="0.0" y="0.0" type="priority" />
    <node id="junction_43" x="0.0" y="0.0" type="priority" />
    <node id="junction_98" x="0.0" y="0.0" type="priority" />
    <node id="junction_103" x="0.0" y="0.0" type="priority" />
    <node id="junction_44" x="0.0" y="0.0" type="priority" />
    <node id="junction_102" x="0.0" y="0.0" type="priority" />
    <node id="junction_104" x="0.0" y="0.0" type="priority" />
    <node id="junction_63" x="0.0" y="0.0" type="priority" />
    <node id="junction_105" x="0.0" y="0.0" type="priority" />
    <node id="junction_45" x="0.0" y="0.0" type="priority" />
    <node id="junction_46" x="0.0" y="0.0" type="priority" />
    <node id="junction_48" x="0.0" y="0.0" type="priority" />
    <node id="junction_107" x="0.0" y="0.0" type="priority" />
    <node id="junction_49" x="0.0" y="0.0" type="priority" />
    <node id="junction_109" x="0.0" y="0.0" type="priority" />
    <node id="junction_50" x="0.0" y="0.0" type="priority" />
    <node id="junction_51" x="0.0" y="0.0" type="priority" />
    <node id="junction_110" x="0.0" y="0.0" type="priority" />
    <node id="junction_52" x="0.0" y="0.0" type="priority" />
    <node id="junction_53" x="0.0" y="0.0" type="priority" />
    <node id="junction_113" x="0.0" y="0.0" type="priority" />
    <node id="junction_54" x="0.0" y="0.0" type="priority" />
    <node id="junction_55" x="0.0" y="0.0" type="priority" />
    <node id="junction_57" x="0.0" y="0.0" type="priority" />
    <node id="junction_114" x="0.0" y="0.0" type="priority" />
    <node id="junction_56" x="0.0" y="0.0" type="priority" />
    <node id="junction_88" x="702486.2993076891" y="3286556.884334327" type="priority" />
    <node id="junction_89" x="707751.2974268979" y="3286985.4998490717" type="priority" />
    <node id="j_merge_start_31" x="703410.2213559087" y="3286740.745475479" type="priority" />
    <node id="j_merge_end_31" x="703596.3433215811" y="3286777.4134202646" type="priority" />
    <node id="j_merge_start_32" x="708384.4547010581" y="3286717.727376666" type="priority" />
    <node id="j_merge_end_32" x="708531.3803417729" y="3286654.47633851" type="priority" />
</nodes>