<?xml version="1.0" encoding="UTF-8"?>

<!-- generated on 2025-10-19 17:35:17 by Eclipse SUMO netconvert Version 1.23.1
<netconvertConfiguration xmlns:xsi="http://www.w3.org/2001/XMLSchema-instance" xsi:noNamespaceSchemaLocation="http://sumo.dlr.de/xsd/netconvertConfiguration.xsd">

    <input>
        <node-files value="/home/sdai/harry/TeraSim/jupiter/eb/jupiter_eb_tiles/tile_0088/tile_0088.nod.xml"/>
        <edge-files value="/home/sdai/harry/TeraSim/jupiter/eb/jupiter_eb_tiles/tile_0088/tile_0088.edg.xml"/>
        <connection-files value="/home/sdai/harry/TeraSim/jupiter/eb/jupiter_eb_tiles/tile_0088/tile_0088.con.xml"/>
    </input>

    <output>
        <output-file value="/home/sdai/harry/TeraSim/jupiter/eb/jupiter_eb_tiles/tile_0088/tile_0088.net.xml"/>
        <output.street-names value="true"/>
        <output.original-names value="true"/>
    </output>

    <processing>
        <geometry.remove value="false"/>
        <geometry.min-dist value="0.5"/>
        <edges.join value="false"/>
    </processing>

    <junctions>
        <no-internal-links value="false"/>
        <no-turnarounds value="true"/>
        <junctions.join value="true"/>
        <junctions.join-dist value="10"/>
        <junctions.corner-detail value="5"/>
        <junctions.internal-link-detail value="5"/>
        <junctions.limit-turn-speed value="5.5"/>
        <rectangular-lane-cut value="true"/>
        <check-lane-foes.all value="true"/>
    </junctions>

</netconvertConfiguration>
-->

<net version="1.20" junctionCornerDetail="5" junctionLinkDetail="5" rectangularLaneCut="true" limitTurnSpeed="5.50" checkLaneFoesAll="1" xmlns:xsi="http://www.w3.org/2001/XMLSchema-instance" xsi:noNamespaceSchemaLocation="http://sumo.dlr.de/xsd/net_file.xsd">

    <location netOffset="-700063.87,-3286223.13" convBoundary="0.00,0.00,8851.78,842.18" origBoundary="0.00,0.00,709120.93,3287065.31" projParameter="!"/>

    <edge id=":j_merge_end_31_0" function="internal">
        <lane id=":j_merge_end_31_0_0" index="0" speed="13.89" length="43.63" width="3.66" shape="3491.65,536.98 3502.22,540.23 3512.23,544.75 3522.25,549.26 3532.82,552.48"/>
        <lane id=":j_merge_end_31_0_1" index="1" speed="13.89" length="43.63" width="3.66" shape="3490.94,540.58 3533.53,548.89"/>
        <lane id=":j_merge_end_31_0_2" index="2" speed="13.89" length="43.63" width="3.66" shape="3490.23,544.17 3532.82,552.48"/>
    </edge>
    <edge id=":j_merge_end_32_0" function="internal">
        <lane id=":j_merge_end_32_0_0" index="0" speed="13.89" length="41.95" width="3.66" shape="8425.60,439.45 8435.91,436.26 8446.19,434.55 8456.48,432.85 8466.79,429.67"/>
        <lane id=":j_merge_end_32_0_1" index="1" speed="13.89" length="41.95" width="3.66" shape="8427.05,442.82 8465.35,426.30"/>
        <lane id=":j_merge_end_32_0_2" index="2" speed="13.89" length="41.95" width="3.66" shape="8428.49,446.18 8466.79,429.67"/>
    </edge>
    <edge id=":j_merge_start_31_0" function="internal">
        <lane id=":j_merge_start_31_0_0" index="0" speed="13.89" length="69.82" width="3.66" shape="3348.04,508.54 3416.52,522.15"/>
    </edge>
    <edge id=":j_merge_start_31_1" function="internal">
        <lane id=":j_merge_start_31_1_0" index="0" speed="13.89" length="69.73" width="3.66" shape="3347.40,512.23 3415.82,525.74"/>
        <lane id=":j_merge_start_31_1_1" index="1" speed="13.89" length="69.73" width="3.66" shape="3346.70,515.82 3415.11,529.33"/>
    </edge>
    <edge id=":j_merge_start_32_0" function="internal">
        <lane id=":j_merge_start_32_0_0" index="0" speed="13.89" length="55.10" width="3.66" shape="8316.86,486.21 8367.48,464.46"/>
    </edge>
    <edge id=":j_merge_start_32_1" function="internal">
        <lane id=":j_merge_start_32_1_0" index="0" speed="13.89" length="55.00" width="3.66" shape="8318.41,489.56 8368.93,467.82"/>
        <lane id=":j_merge_start_32_1_1" index="1" speed="13.89" length="55.00" width="3.66" shape="8319.86,492.92 8370.38,471.18"/>
    </edge>
    <edge id=":junction_88_0" function="internal">
        <lane id=":junction_88_0_0" index="0" speed="13.89" length="89.18" width="3.66" shape="2368.04,319.93 2387.32,323.16 2415.78,327.45 2442.41,331.27 2456.23,333.12"/>
    </edge>
    <edge id=":junction_88_1" function="internal">
        <lane id=":junction_88_1_0" index="0" speed="13.89" length="89.29" width="3.66" shape="2368.04,319.93 2455.65,337.14"/>
        <lane id=":junction_88_1_1" index="1" speed="13.89" length="89.29" width="3.66" shape="2367.32,323.52 2454.94,340.73"/>
    </edge>
    <edge id=":junction_89_0" function="internal">
        <lane id=":junction_89_0_0" index="0" speed="13.89" length="82.53" width="3.66" shape="7636.76,777.71 7654.02,771.00 7678.43,760.67 7700.97,750.74 7712.61,745.23"/>
    </edge>
    <edge id=":junction_89_1" function="internal">
        <lane id=":junction_89_1_0" index="0" speed="13.89" length="82.96" width="3.66" shape="7636.76,777.71 7714.50,749.11"/>
        <lane id=":junction_89_1_1" index="1" speed="13.89" length="82.96" width="3.66" shape="7637.92,781.19 7715.90,752.49"/>
    </edge>
    <edge id=":node_484_end_0" function="internal">
        <lane id=":node_484_end_0_0" index="0" speed="13.89" length="0.30" width="3.66" shape="700.59,53.69 700.89,53.71"/>
        <lane id=":node_484_end_0_1" index="1" speed="13.89" length="0.30" width="3.66" shape="700.28,57.33 700.58,57.36"/>
    </edge>
    <edge id=":node_485_end_0" function="internal">
        <lane id=":node_485_end_0_0" index="0" speed="13.89" length="3.00" width="3.66" shape="3281.30,499.21 3284.25,499.79"/>
        <lane id=":node_485_end_0_1" index="1" speed="13.89" length="3.00" width="3.66" shape="3280.60,502.80 3283.53,503.38"/>
    </edge>
    <edge id=":node_485_start_0" function="internal">
        <lane id=":node_485_start_0_0" index="0" speed="13.89" length="0.30" width="3.66" shape="2958.69,435.92 2958.99,435.98"/>
        <lane id=":node_485_start_0_1" index="1" speed="13.89" length="0.30" width="3.66" shape="2958.00,439.52 2958.29,439.57"/>
    </edge>
    <edge id=":node_488_end_0" function="internal">
        <lane id=":node_488_end_0_0" index="0" speed="13.89" length="0.30" width="3.66" shape="5512.63,769.34 5512.93,769.35"/>
        <lane id=":node_488_end_0_1" index="1" speed="13.89" length="0.30" width="3.66" shape="5512.49,773.00 5512.78,773.01"/>
    </edge>
    <edge id=":node_488_start_0" function="internal">
        <lane id=":node_488_start_0_0" index="0" speed="13.89" length="0.30" width="3.66" shape="4784.55,740.89 4784.85,740.90"/>
        <lane id=":node_488_start_0_1" index="1" speed="13.89" length="0.30" width="3.66" shape="4784.41,744.55 4784.71,744.56"/>
    </edge>
    <edge id=":node_489_end_0" function="internal">
        <lane id=":node_489_end_0_0" index="0" speed="13.89" length="0.29" width="3.66" shape="3284.73,491.70 3285.01,491.78"/>
    </edge>
    <edge id=":node_490_end_0" function="internal">
        <lane id=":node_490_end_0_0" index="0" speed="13.89" length="0.30" width="3.66" shape="790.76,61.39 791.06,61.41"/>
        <lane id=":node_490_end_0_1" index="1" speed="13.89" length="0.30" width="3.66" shape="790.45,65.03 790.75,65.06"/>
    </edge>
    <edge id=":node_492_end_0" function="internal">
        <lane id=":node_492_end_0_0" index="0" speed="13.89" length="0.30" width="3.66" shape="2542.46,354.15 2542.75,354.21"/>
        <lane id=":node_492_end_0_1" index="1" speed="13.89" length="0.30" width="3.66" shape="2541.75,357.75 2542.05,357.80"/>
    </edge>
    <edge id=":node_492_start_0" function="internal">
        <lane id=":node_492_start_0_0" index="0" speed="13.89" length="3.00" width="3.66" shape="2516.78,349.14 2519.71,349.72"/>
        <lane id=":node_492_start_0_1" index="1" speed="13.89" length="3.00" width="3.66" shape="2516.06,352.73 2519.01,353.31"/>
    </edge>
    <edge id=":node_494_end_0" function="internal">
        <lane id=":node_494_end_0_0" index="0" speed="13.89" length="0.30" width="3.66" shape="843.20,65.79 843.51,65.81"/>
        <lane id=":node_494_end_0_1" index="1" speed="13.89" length="0.30" width="3.66" shape="842.91,69.44 843.19,69.46"/>
    </edge>
    <edge id=":node_495_end_0" function="internal">
        <lane id=":node_495_end_0_0" index="0" speed="13.89" length="0.30" width="3.66" shape="2820.06,408.71 2820.36,408.76"/>
        <lane id=":node_495_end_0_1" index="1" speed="13.89" length="0.30" width="3.66" shape="2819.35,412.30 2819.64,412.35"/>
    </edge>
    <edge id=":node_497_end_0" function="internal">
        <lane id=":node_497_end_0_0" index="0" speed="13.89" length="0.30" width="3.66" shape="2520.37,339.52 2520.67,339.55"/>
    </edge>
    <edge id=":node_498_end_0" function="internal">
        <lane id=":node_498_end_0_0" index="0" speed="13.89" length="0.30" width="3.66" shape="2890.22,422.59 2890.52,422.65"/>
        <lane id=":node_498_end_0_1" index="1" speed="13.89" length="0.30" width="3.66" shape="2889.52,426.19 2889.81,426.24"/>
    </edge>
    <edge id=":node_502_end_0" function="internal">
        <lane id=":node_502_end_0_0" index="0" speed="13.89" length="0.30" width="3.66" shape="4702.20,737.72 4702.50,737.73"/>
        <lane id=":node_502_end_0_1" index="1" speed="13.89" length="0.30" width="3.66" shape="4702.05,741.38 4702.35,741.39"/>
    </edge>
    <edge id=":node_513_end_0" function="internal">
        <lane id=":node_513_end_0_0" index="0" speed="13.89" length="0.30" width="3.66" shape="5602.46,772.83 5602.77,772.84"/>
        <lane id=":node_513_end_0_1" index="1" speed="13.89" length="0.30" width="3.66" shape="5602.32,776.49 5602.62,776.50"/>
    </edge>
    <edge id=":node_514_end_0" function="internal">
        <lane id=":node_514_end_0_0" index="0" speed="13.89" length="3.00" width="3.66" shape="7757.31,730.98 7760.07,729.80"/>
        <lane id=":node_514_end_0_1" index="1" speed="13.89" length="3.00" width="3.66" shape="7758.75,734.34 7761.51,733.17"/>
    </edge>
    <edge id=":node_515_start_0" function="internal">
        <lane id=":node_515_start_0_0" index="0" speed="13.89" length="0.10" width="3.66" shape="5916.40,785.07 5916.40,785.07"/>
        <lane id=":node_515_start_0_1" index="1" speed="13.89" length="0.10" width="3.66" shape="5916.25,788.72 5916.25,788.72"/>
    </edge>
    <edge id=":node_518_start_0" function="internal">
        <lane id=":node_518_start_0_0" index="0" speed="13.89" length="2.99" width="3.66" shape="8249.33,519.32 8252.08,518.14"/>
        <lane id=":node_518_start_0_1" index="1" speed="13.89" length="2.99" width="3.66" shape="8250.77,522.68 8253.53,521.50"/>
    </edge>
    <edge id=":node_522_start_0" function="internal">
        <lane id=":node_522_start_0_0" index="0" speed="13.89" length="0.29" width="3.66" shape="7753.04,720.14 7753.29,719.99"/>
    </edge>
    <edge id=":node_523_start_0" function="internal">
        <lane id=":node_523_start_0_0" index="0" speed="13.89" length="0.30" width="3.66" shape="8059.89,600.87 8060.16,600.75"/>
        <lane id=":node_523_start_0_1" index="1" speed="13.89" length="0.30" width="3.66" shape="8061.33,604.23 8061.61,604.11"/>
    </edge>
    <edge id=":node_525_end_0" function="internal">
        <lane id=":node_525_end_0_0" index="0" speed="13.89" length="0.10" width="3.66" shape="5632.28,773.98 5632.28,773.98"/>
        <lane id=":node_525_end_0_1" index="1" speed="13.89" length="0.10" width="3.66" shape="5632.14,777.64 5632.14,777.64"/>
    </edge>
    <edge id=":node_526_end_0" function="internal">
        <lane id=":node_526_end_0_0" index="0" speed="13.89" length="0.30" width="3.66" shape="7911.84,664.71 7912.11,664.59"/>
        <lane id=":node_526_end_0_1" index="1" speed="13.89" length="0.30" width="3.66" shape="7913.29,668.07 7913.56,667.95"/>
    </edge>
    <edge id=":node_527_end_0" function="internal">
        <lane id=":node_527_end_0_0" index="0" speed="13.89" length="0.30" width="3.66" shape="8247.58,510.97 8247.86,510.87"/>
    </edge>
    <edge id=":node_529_end_0" function="internal">
        <lane id=":node_529_end_0_0" index="0" speed="13.89" length="0.10" width="3.66" shape="5874.62,783.42 5874.62,783.42"/>
        <lane id=":node_529_end_0_1" index="1" speed="13.89" length="0.10" width="3.66" shape="5874.48,787.08 5874.48,787.08"/>
    </edge>
    <edge id=":node_529_start_0" function="internal">
        <lane id=":node_529_start_0_0" index="0" speed="13.89" length="0.10" width="3.66" shape="5783.94,779.85 5783.94,779.85"/>
        <lane id=":node_529_start_0_1" index="1" speed="13.89" length="0.10" width="3.66" shape="5783.80,783.51 5783.80,783.51"/>
    </edge>
    <edge id=":node_530_start_0" function="internal">
        <lane id=":node_530_start_0_0" index="0" speed="13.89" length="0.10" width="3.66" shape="7995.37,628.66 7995.37,628.66"/>
        <lane id=":node_530_start_0_1" index="1" speed="13.89" length="0.10" width="3.66" shape="7996.83,632.02 7996.83,632.02"/>
    </edge>

    <edge id="484.0" from="node_484_start" to="node_484_end" priority="-1" type="town" shape="0.00,0.00 24.30,2.02 47.98,4.02 77.29,6.46 108.58,9.06 135.46,11.35 165.83,14.01 189.71,16.10 211.97,17.93 231.90,19.62 248.88,21.05 264.81,22.39 297.39,25.15 336.99,28.52 363.83,30.78 388.83,32.88 415.95,35.11 448.91,37.88 481.45,40.64 507.51,42.85 533.25,45.03 586.49,49.52 624.61,52.71 677.77,57.26 700.27,59.17">
        <lane id="484.0_0" index="0" disallow="all" speed="13.89" length="702.63" width="3.66" shape="0.76,-9.12 25.07,-7.10 48.75,-5.10 78.05,-2.66 109.35,-0.06 136.25,2.23 166.63,4.90 190.49,6.98 212.73,8.81 232.67,10.50 249.65,11.93 265.58,13.27 298.17,16.03 337.77,19.40 364.60,21.66 389.59,23.76 416.71,25.99 449.68,28.76 482.23,31.52 508.29,33.73 534.02,35.91 587.26,40.40 625.38,43.59 678.55,48.14 700.90,50.04" type="shoulder"/>
        <lane id="484.0_1" index="1" speed="13.89" length="702.63" width="3.66" shape="0.45,-5.47 24.76,-3.45 48.44,-1.45 77.75,0.99 109.04,3.59 135.94,5.88 166.31,8.54 190.18,10.63 212.43,12.46 232.36,14.15 249.34,15.58 265.27,16.92 297.86,19.68 337.46,23.05 364.29,25.31 389.29,27.41 416.41,29.64 449.37,32.41 481.92,35.17 507.98,37.38 533.71,39.56 586.95,44.05 625.08,47.24 678.24,51.79 700.59,53.69"/>
        <lane id="484.0_2" index="2" speed="13.89" length="702.63" width="3.66" shape="0.15,-1.82 24.46,0.20 48.14,2.20 77.44,4.64 108.74,7.24 135.62,9.53 165.99,12.19 189.87,14.28 212.12,16.11 232.06,17.80 249.04,19.23 264.97,20.57 297.55,23.33 337.15,26.70 363.99,28.96 388.98,31.06 416.10,33.29 449.07,36.06 481.61,38.82 507.67,41.03 533.41,43.21 586.65,47.70 624.77,50.89 677.93,55.44 700.28,57.33"/>
    </edge>
    <edge id="485.0" from="node_485_start" to="node_485_end" priority="-1" type="town" shape="2957.79,441.34 2989.28,447.53 3023.04,454.14 3054.26,460.21 3085.11,466.25 3111.81,471.49 3137.50,476.51 3164.78,481.85 3188.15,486.44 3211.59,491.06 3236.04,495.91 3261.76,500.97 3281.71,504.88">
        <lane id="485.0_0" index="0" disallow="all" speed="13.89" length="328.45" width="3.66" shape="2959.70,432.39 2991.04,438.55 3024.79,445.16 3056.01,451.23 3086.87,457.27 3113.57,462.51 3139.26,467.53 3166.54,472.87 3189.92,477.46 3213.37,482.08 3237.82,486.93 3263.53,491.99 3282.01,495.61" type="shoulder"/>
        <lane id="485.0_1" index="1" speed="13.89" length="328.45" width="3.66" shape="2958.99,435.98 2990.34,442.14 3024.09,448.75 3055.31,454.82 3086.17,460.86 3112.87,466.10 3138.56,471.12 3165.84,476.46 3189.21,481.05 3212.66,485.67 3237.11,490.52 3262.82,495.58 3281.30,499.21"/>
        <lane id="485.0_2" index="2" speed="13.89" length="328.45" width="3.66" shape="2958.29,439.57 2989.63,445.73 3023.39,452.34 3054.61,458.41 3085.46,464.45 3112.16,469.69 3137.85,474.71 3165.13,480.05 3188.51,484.65 3211.95,489.27 3236.40,494.12 3262.12,499.17 3280.60,502.80"/>
    </edge>
    <edge id="488.0" from="node_488_start" to="node_488_end" priority="-1" type="town" shape="4784.49,746.38 4799.40,746.96 4825.34,747.95 4849.98,748.91 4875.74,749.86 4896.83,750.73 4913.33,751.35 4935.99,752.24 4976.85,753.84 5003.65,754.91 5021.85,755.62 5045.66,756.54 5065.51,757.35 5086.48,758.18 5110.58,759.12 5137.73,760.18 5160.92,761.07 5179.98,761.86 5199.88,762.64 5219.29,763.39 5240.11,764.23 5250.95,764.62 5261.26,764.99 5275.73,765.52 5295.77,766.31 5309.24,766.85 5330.85,767.69 5345.58,768.28 5364.51,769.05 5388.12,769.93 5409.56,770.78 5435.31,771.78 5452.03,772.45 5466.52,773.01 5480.31,773.58 5492.52,774.08 5507.00,774.61 5512.56,774.83">
        <lane id="488.0_0" index="0" disallow="all" speed="13.89" length="728.33" width="3.66" shape="4785.00,737.24 4799.75,737.82 4825.69,738.81 4850.33,739.77 4876.10,740.72 4897.19,741.59 4913.69,742.21 4936.35,743.10 4977.21,744.70 5004.01,745.77 5022.21,746.48 5046.02,747.40 5065.88,748.21 5086.84,749.04 5110.94,749.98 5138.09,751.04 5161.29,751.93 5180.35,752.72 5200.24,753.50 5219.65,754.25 5240.47,755.09 5251.28,755.48 5261.59,755.85 5276.08,756.38 5296.14,757.17 5309.60,757.71 5331.21,758.55 5345.95,759.14 5364.87,759.91 5388.47,760.79 5409.92,761.64 5435.67,762.64 5452.39,763.31 5466.89,763.87 5480.69,764.44 5492.88,764.94 5507.34,765.47 5512.78,765.68" type="shoulder"/>
        <lane id="488.0_1" index="1" speed="13.89" length="728.33" width="3.66" shape="4784.85,740.90 4799.61,741.47 4825.55,742.46 4850.19,743.42 4875.96,744.37 4897.05,745.24 4913.54,745.86 4936.21,746.75 4977.07,748.35 5003.87,749.42 5022.07,750.13 5045.88,751.05 5065.73,751.87 5086.70,752.69 5110.80,753.63 5137.94,754.69 5161.14,755.58 5180.20,756.38 5200.10,757.15 5219.51,757.90 5240.33,758.74 5251.15,759.13 5261.46,759.50 5275.94,760.03 5295.99,760.82 5309.46,761.36 5331.07,762.20 5345.80,762.80 5364.73,763.56 5388.33,764.44 5409.78,765.29 5435.53,766.29 5452.25,766.96 5466.74,767.53 5480.54,768.10 5492.73,768.59 5507.21,769.12 5512.63,769.34"/>
        <lane id="488.0_2" index="2" speed="13.89" length="728.33" width="3.66" shape="4784.71,744.56 4799.47,745.13 4825.41,746.12 4850.05,747.08 4875.81,748.03 4896.90,748.90 4913.40,749.52 4936.06,750.41 4976.92,752.01 5003.72,753.08 5021.92,753.79 5045.73,754.71 5065.59,755.52 5086.55,756.35 5110.65,757.29 5137.80,758.35 5161.00,759.24 5180.06,760.03 5199.95,760.81 5219.36,761.56 5240.18,762.40 5251.02,762.79 5261.33,763.16 5275.80,763.69 5295.85,764.48 5309.31,765.02 5330.92,765.86 5345.66,766.45 5364.58,767.22 5388.19,768.10 5409.63,768.95 5435.38,769.95 5452.10,770.62 5466.60,771.18 5480.39,771.75 5492.59,772.25 5507.07,772.78 5512.49,773.00"/>
    </edge>
    <edge id="489.0" from="node_489_start" to="node_489_end" priority="-1" type="town" shape="3105.98,433.37 3134.92,443.16 3152.27,449.03 3178.82,458.35 3203.43,467.20 3220.27,473.04 3244.75,481.40 3260.96,486.61 3273.65,490.40 3284.37,493.50">
        <lane id="489.0_0" index="0" speed="13.89" length="188.04" width="3.66" shape="3106.57,431.64 3135.51,441.43 3152.87,447.30 3179.44,456.63 3204.04,465.48 3220.87,471.31 3245.33,479.66 3261.50,484.86 3274.17,488.65 3284.73,491.70"/>
    </edge>
    <edge id="490.0" from="node_484_end" to="node_490_end" priority="-1" type="town" shape="700.27,59.17 719.04,60.79 746.10,63.08 772.14,65.29 790.44,66.87">
        <lane id="490.0_0" index="0" disallow="all" speed="13.89" length="90.20" width="3.66" shape="701.21,50.07 719.82,51.67 746.88,53.96 772.92,56.17 791.08,57.74" type="shoulder"/>
        <lane id="490.0_1" index="1" speed="13.89" length="90.20" width="3.66" shape="700.89,53.71 719.51,55.32 746.57,57.61 772.61,59.82 790.76,61.39"/>
        <lane id="490.0_2" index="2" speed="13.89" length="90.20" width="3.66" shape="700.58,57.36 719.20,58.97 746.26,61.26 772.30,63.47 790.45,65.03"/>
    </edge>
    <edge id="492.0" from="node_492_start" to="node_492_end" priority="-1" type="town" shape="2517.18,354.82 2528.83,357.08 2541.55,359.57">
        <lane id="492.0_0" index="0" disallow="all" speed="13.89" length="23.18" width="3.66" shape="2520.41,346.13 2530.58,348.10 2543.16,350.56" type="shoulder"/>
        <lane id="492.0_1" index="1" speed="13.89" length="23.18" width="3.66" shape="2519.71,349.72 2529.88,351.69 2542.46,354.15"/>
        <lane id="492.0_2" index="2" speed="13.89" length="23.18" width="3.66" shape="2519.01,353.31 2529.18,355.28 2541.75,357.75"/>
    </edge>
    <edge id="494.0" from="node_490_end" to="node_494_end" priority="-1" type="town" shape="790.44,66.87 808.67,68.42 834.75,70.63 842.90,71.27">
        <lane id="494.0_0" index="0" disallow="all" speed="13.89" length="52.32" width="3.66" shape="791.37,57.77 809.45,59.30 835.51,61.51 843.48,62.14" type="shoulder"/>
        <lane id="494.0_1" index="1" speed="13.89" length="52.32" width="3.66" shape="791.06,61.41 809.14,62.95 835.21,65.16 843.20,65.79"/>
        <lane id="494.0_2" index="2" speed="13.89" length="52.32" width="3.66" shape="790.75,65.06 808.83,66.60 834.90,68.81 842.91,69.44"/>
    </edge>
    <edge id="495.0" from="node_492_end" to="node_495_end" priority="-1" type="town" shape="2541.55,359.57 2558.13,362.79 2581.01,367.23 2605.18,371.97 2631.39,377.14 2657.81,382.30 2679.86,386.67 2701.63,390.98 2725.69,395.68 2752.47,400.94 2779.96,406.31 2807.04,411.74 2819.14,414.12">
        <lane id="495.0_0" index="0" disallow="all" speed="13.89" length="282.61" width="3.66" shape="2543.45,350.62 2559.88,353.81 2582.76,358.25 2606.95,362.99 2633.15,368.16 2659.58,373.32 2681.64,377.70 2703.40,382.00 2727.45,386.70 2754.23,391.96 2781.74,397.33 2808.83,402.77 2820.77,405.11" type="shoulder"/>
        <lane id="495.0_1" index="1" speed="13.89" length="282.61" width="3.66" shape="2542.75,354.21 2559.18,357.40 2582.06,361.84 2606.24,366.58 2632.45,371.75 2658.87,376.91 2680.93,381.29 2702.69,385.59 2726.75,390.29 2753.53,395.55 2781.03,400.93 2808.12,406.36 2820.06,408.71"/>
        <lane id="495.0_2" index="2" speed="13.89" length="282.61" width="3.66" shape="2542.05,357.80 2558.48,360.99 2581.36,365.43 2605.54,370.18 2631.74,375.34 2658.17,380.51 2680.22,384.88 2701.99,389.19 2726.04,393.88 2752.82,399.14 2780.32,404.52 2807.40,409.95 2819.35,412.30"/>
    </edge>
    <edge id="497.0" from="junction_88" to="node_497_end" priority="-1" type="town" shape="2451.10,334.48 2460.47,335.35 2479.52,337.28 2496.04,338.91 2520.34,341.36">
        <lane id="497.0_0" index="0" speed="13.89" length="64.47" width="3.66" shape="2456.23,333.12 2460.65,333.53 2479.70,335.46 2496.22,337.09 2520.37,339.52"/>
    </edge>
    <edge id="498.0" from="node_495_end" to="node_498_end" priority="-1" type="town" shape="2819.14,414.12 2834.74,417.23 2854.27,421.11 2874.26,425.08 2889.31,428.01">
        <lane id="498.0_0" index="0" disallow="all" speed="13.89" length="71.22" width="3.66" shape="2821.07,405.18 2836.53,408.26 2856.06,412.14 2876.03,416.10 2890.92,419.00" type="shoulder"/>
        <lane id="498.0_1" index="1" speed="13.89" length="71.22" width="3.66" shape="2820.36,408.76 2835.81,411.85 2855.34,415.73 2875.32,419.69 2890.22,422.59"/>
        <lane id="498.0_2" index="2" speed="13.89" length="71.22" width="3.66" shape="2819.64,412.35 2835.10,415.44 2854.63,419.32 2874.62,423.29 2889.52,426.19"/>
    </edge>
    <edge id="499.0" from="node_494_end" to="junction_88" priority="-1" type="town" shape="842.90,71.27 854.07,72.23 872.02,73.78 896.95,75.84 924.91,78.17 946.82,80.02 978.17,82.75 1005.00,85.08 1027.67,87.07 1050.15,88.94 1078.55,91.38 1112.05,94.43 1129.84,96.17 1143.00,97.54 1164.53,99.97 1186.80,102.66 1216.69,106.48 1249.50,110.94 1275.84,114.69 1306.06,119.32 1333.27,123.71 1371.89,130.26 1386.56,132.90 1406.02,136.57 1430.34,141.16 1461.50,147.21 1485.88,151.99 1509.64,156.62 1538.92,162.34 1572.53,168.96 1593.11,173.02 1619.37,178.17 1649.43,184.11 1683.05,190.73 1713.73,196.76 1749.67,203.83 1785.74,210.94 1814.86,216.69 1850.13,223.72 1888.83,231.41 1923.60,238.21 1963.70,246.06 1999.32,253.02 2025.44,258.12 2055.82,264.06 2084.26,269.67 2106.20,273.96 2127.41,278.16 2151.20,282.87 2187.46,289.96 2223.30,297.02 2264.33,305.05 2302.62,312.63 2334.11,318.80 2342.46,320.47 2353.64,322.69 2364.25,324.77 2366.96,325.31">
        <lane id="499.0_0" index="0" disallow="all" speed="13.89" length="1546.99" width="3.66" shape="843.82,62.17 854.86,63.11 872.79,64.66 897.71,66.72 925.68,69.05 947.61,70.90 978.97,73.64 1005.80,75.97 1028.45,77.95 1050.92,79.82 1079.36,82.27 1112.91,85.32 1130.76,87.07 1143.99,88.44 1165.59,90.88 1187.93,93.58 1217.89,97.41 1250.76,101.88 1277.18,105.64 1307.48,110.28 1334.77,114.68 1373.47,121.25 1388.22,123.90 1407.72,127.58 1432.06,132.17 1463.25,138.23 1487.64,143.01 1511.39,147.64 1540.68,153.36 1574.30,159.98 1594.88,164.04 1621.14,169.19 1651.20,175.13 1684.82,181.75 1715.50,187.78 1751.44,194.85 1787.51,201.96 1816.64,207.72 1851.92,214.75 1890.60,222.43 1925.36,229.23 1965.46,237.08 2001.08,244.04 2027.20,249.14 2057.59,255.08 2086.03,260.69 2107.97,264.98 2129.19,269.18 2152.97,273.89 2189.22,280.98 2225.06,288.04 2266.10,296.07 2304.39,303.65 2335.88,309.82 2344.25,311.50 2355.41,313.71 2366.02,315.79 2368.75,316.34" type="shoulder"/>
        <lane id="499.0_1" index="1" speed="13.89" length="1546.99" width="3.66" shape="843.51,65.81 854.54,66.76 872.48,68.31 897.41,70.37 925.37,72.70 947.29,74.55 978.65,77.28 1005.48,79.61 1028.14,81.60 1050.62,83.47 1079.04,85.91 1112.57,88.96 1130.39,90.71 1143.59,92.08 1165.17,94.52 1187.48,97.21 1217.41,101.04 1250.26,105.50 1276.65,109.26 1306.92,113.90 1334.17,118.29 1372.84,124.85 1387.56,127.50 1407.04,131.18 1431.37,135.77 1462.55,141.82 1486.94,146.60 1510.69,151.23 1539.98,156.95 1573.59,163.57 1594.17,167.63 1620.43,172.78 1650.49,178.72 1684.11,185.34 1714.79,191.37 1750.73,198.44 1786.80,205.55 1815.93,211.31 1851.20,218.34 1889.89,226.02 1924.66,232.82 1964.76,240.67 2000.37,247.63 2026.50,252.73 2056.88,258.67 2085.32,264.28 2107.26,268.57 2128.48,272.78 2152.26,277.48 2188.52,284.57 2224.36,291.63 2265.39,299.66 2303.68,307.24 2335.17,313.41 2343.53,315.09 2354.71,317.30 2365.31,319.38 2368.04,319.93"/>
        <lane id="499.0_2" index="2" speed="13.89" length="1546.99" width="3.66" shape="843.19,69.46 854.23,70.41 872.18,71.96 897.10,74.02 925.07,76.35 946.98,78.20 978.33,80.93 1005.16,83.26 1027.83,85.25 1050.31,87.12 1078.71,89.56 1112.22,92.61 1130.03,94.35 1143.20,95.72 1164.74,98.15 1187.03,100.84 1216.93,104.67 1249.75,109.13 1276.11,112.88 1306.35,117.51 1333.57,121.91 1372.21,128.46 1386.89,131.10 1406.36,134.77 1430.69,139.36 1461.85,145.41 1486.23,150.19 1509.99,154.82 1539.27,160.54 1572.89,167.17 1593.47,171.23 1619.73,176.38 1649.79,182.32 1683.41,188.94 1714.09,194.97 1750.03,202.04 1786.10,209.15 1815.22,214.90 1850.49,221.93 1889.19,229.62 1923.95,236.41 1964.05,244.26 1999.67,251.22 2025.79,256.32 2056.18,262.26 2084.62,267.87 2106.56,272.17 2127.77,276.37 2151.56,281.07 2187.81,288.16 2223.65,295.22 2264.69,303.26 2302.98,310.84 2334.47,317.01 2342.82,318.68 2354.00,320.90 2364.61,322.98 2367.32,323.52"/>
    </edge>
    <edge id="501.0" from="node_497_end" to="node_501_end" priority="-1" type="town" shape="2520.34,341.36 2539.10,343.18 2561.55,345.62 2582.56,347.84 2600.46,349.78 2615.71,351.36 2642.75,354.35 2668.50,357.10 2677.02,358.05">
        <lane id="501.0_0" index="0" speed="13.89" length="157.44" width="3.66" shape="2520.67,339.55 2539.29,341.36 2561.75,343.80 2582.76,346.02 2600.66,347.96 2615.91,349.54 2642.95,352.53 2668.70,355.28 2677.23,356.23"/>
    </edge>
    <edge id="502.0" from="j_merge_end_31" to="node_502_end" priority="-1" type="town" shape="3532.47,554.28 3542.07,556.16 3553.85,558.47 3569.54,561.57 3582.29,564.08 3595.05,566.58 3611.38,569.77 3635.86,574.57 3661.21,579.56 3689.59,585.11 3714.21,589.97 3740.84,595.16 3756.74,598.25 3780.61,602.93 3809.42,608.55 3835.47,613.63 3860.62,618.56 3891.56,624.67 3920.53,630.40 3947.31,635.66 3976.50,641.39 4004.05,646.84 4035.68,653.06 4060.62,657.99 4090.42,663.82 4114.84,668.62 4131.23,671.84 4156.95,676.92 4186.65,682.71 4213.99,688.10 4253.78,695.92 4276.31,700.36 4306.66,706.17 4336.68,711.73 4355.00,714.96 4380.85,719.30 4406.49,723.10 4425.79,725.72 4447.45,728.35 4468.58,730.64 4489.63,732.67 4510.83,734.43 4540.59,736.36 4554.82,737.19 4574.90,738.17 4595.85,739.00 4619.71,740.00 4644.43,740.98 4669.81,741.93 4702.13,743.21">
        <lane id="502.0_0" index="0" disallow="all" speed="13.89" length="1185.70" width="3.66" shape="3534.23,545.30 3543.83,547.18 3555.62,549.49 3571.31,552.59 3584.06,555.10 3596.81,557.60 3613.14,560.79 3637.63,565.59 3662.97,570.58 3691.36,576.13 3715.97,580.99 3742.59,586.18 3758.50,589.27 3782.37,593.95 3811.17,599.57 3837.23,604.65 3862.39,609.58 3893.34,615.69 3922.30,621.42 3949.08,626.68 3978.27,632.41 4005.82,637.86 4037.45,644.08 4062.39,649.01 4092.18,654.84 4116.61,659.64 4133.00,662.86 4158.71,667.94 4188.41,673.73 4215.76,679.12 4255.55,686.94 4278.06,691.38 4308.36,697.18 4338.31,702.73 4356.55,705.94 4382.28,710.26 4407.78,714.04 4426.96,716.65 4448.50,719.26 4469.51,721.54 4490.45,723.56 4511.51,725.31 4541.17,727.23 4555.31,728.05 4575.31,729.03 4596.23,729.86 4620.09,730.86 4644.78,731.84 4670.17,732.79 4702.34,734.06" type="shoulder"/>
        <lane id="502.0_1" index="1" speed="13.89" length="1185.70" width="3.66" shape="3533.53,548.89 3543.13,550.77 3554.91,553.08 3570.60,556.18 3583.35,558.69 3596.11,561.19 3612.44,564.38 3636.92,569.18 3662.27,574.17 3690.65,579.72 3715.27,584.58 3741.89,589.77 3757.80,592.86 3781.67,597.54 3810.47,603.16 3836.53,608.24 3861.68,613.17 3892.63,619.28 3921.59,625.01 3948.37,630.27 3977.56,636.00 4005.11,641.45 4036.74,647.67 4061.68,652.60 4091.48,658.43 4115.90,663.23 4132.29,666.45 4158.01,671.53 4187.71,677.32 4215.05,682.71 4254.84,690.53 4277.36,694.97 4307.68,700.78 4337.66,706.33 4355.93,709.55 4381.71,713.88 4407.26,717.67 4426.49,720.28 4448.08,722.90 4469.14,725.18 4490.12,727.20 4511.24,728.96 4540.94,730.88 4555.12,731.71 4575.14,732.69 4596.08,733.52 4619.94,734.52 4644.64,735.49 4670.02,736.44 4702.20,737.72"/>