<?xml version='1.0' encoding='utf-8'?>
<edges>
    <edge id="484.0" from="node_484_start" to="node_484_end" numLanes="3" speed="13.89" type="town" shape="700063.87,3286223.13 700088.17,3286225.15 700088.17,3286225.15 700111.85,3286227.15 700111.85,3286227.15 700141.16,3286229.59 700141.16,3286229.59 700172.45,3286232.19 700172.45,3286232.19 700199.33,3286234.48 700199.33,3286234.48 700229.70,3286237.14 700229.70,3286237.14 700253.58,3286239.23 700253.58,3286239.23 700275.84,3286241.06 700275.84,3286241.06 700295.77,3286242.75 700295.77,3286242.75 700312.75,3286244.18 700312.75,3286244.18 700328.68,3286245.52 700328.68,3286245.52 700361.26,3286248.28 700361.26,3286248.28 700400.86,3286251.65 700400.86,3286251.65 700427.70,3286253.91 700427.70,3286253.91 700452.70,3286256.01 700452.70,3286256.01 700479.82,3286258.24 700479.82,3286258.24 700512.78,3286261.01 700512.78,3286261.01 700545.32,3286263.77 700545.32,3286263.77 700571.38,3286265.98 700571.38,3286265.98 700597.12,3286268.16 700597.12,3286268.16 700650.36,3286272.65 700650.36,3286272.65 700688.48,3286275.84 700688.48,3286275.84 700741.64,3286280.39 700741.64,3286280.39 700764.14,3286282.30">
        <lane index="0" width="3.66" type="shoulder" disallow="all" />
        <lane index="1" width="3.66" />
        <lane index="2" width="3.66" />
    </edge>
    <edge id="485.0" from="node_485_start" to="node_485_end" numLanes="3" speed="13.89" type="town" shape="703021.66,3286664.47 703053.15,3286670.66 703053.15,3286670.66 703086.91,3286677.27 703086.91,3286677.27 703118.13,3286683.34 703118.13,3286683.34 703148.98,3286689.38 703148.98,3286689.38 703175.68,3286694.62 703175.68,3286694.62 703201.37,3286699.64 703201.37,3286699.64 703228.65,3286704.98 703228.65,3286704.98 703252.02,3286709.57 703252.02,3286709.57 703275.46,3286714.19 703275.46,3286714.19 703299.91,3286719.04 703299.91,3286719.04 703325.63,3286724.10 703325.63,3286724.10 703345.58,3286728.01">
        <lane index="0" width="3.66" type="shoulder" disallow="all" />
        <lane index="1" width="3.66" />
        <lane index="2" width="3.66" />
    </edge>
    <edge id="488.0" from="node_488_start" to="node_488_end" numLanes="3" speed="13.89" type="town" shape="704848.36,3286969.51 704863.27,3286970.09 704863.27,3286970.09 704889.21,3286971.08 704889.21,3286971.08 704913.85,3286972.04 704913.85,3286972.04 704939.61,3286972.99 704939.61,3286972.99 704960.70,3286973.86 704960.70,3286973.86 704977.20,3286974.48 704977.20,3286974.48 704999.86,3286975.37 704999.86,3286975.37 705040.72,3286976.97 705040.72,3286976.97 705067.52,3286978.04 705067.52,3286978.04 705085.72,3286978.75 705085.72,3286978.75 705109.53,3286979.67 705109.53,3286979.67 705129.38,3286980.48 705129.38,3286980.48 705150.35,3286981.31 705150.35,3286981.31 705174.45,3286982.25 705174.45,3286982.25 705201.60,3286983.31 705201.60,3286983.31 705224.79,3286984.20 705224.79,3286984.20 705243.85,3286984.99 705243.85,3286984.99 705263.75,3286985.77 705263.75,3286985.77 705283.16,3286986.52 705283.16,3286986.52 705303.98,3286987.36 705303.98,3286987.36 705314.82,3286987.75 705314.82,3286987.75 705325.13,3286988.12 705325.13,3286988.12 705339.60,3286988.65 705339.60,3286988.65 705359.64,3286989.44 705359.64,3286989.44 705373.11,3286989.98 705373.11,3286989.98 705394.72,3286990.82 705394.72,3286990.82 705409.45,3286991.41 705409.45,3286991.41 705428.38,3286992.18 705428.38,3286992.18 705451.99,3286993.06 705451.99,3286993.06 705473.43,3286993.91 705473.43,3286993.91 705499.18,3286994.91 705499.18,3286994.91 705515.90,3286995.58 705515.90,3286995.58 705530.39,3286996.14 705530.39,3286996.14 705544.18,3286996.71 705544.18,3286996.71 705556.39,3286997.21 705556.39,3286997.21 705570.87,3286997.74 705570.87,3286997.74 705576.43,3286997.96">
        <lane index="0" width="3.66" type="shoulder" disallow="all" />
        <lane index="1" width="3.66" />
        <lane index="2" width="3.66" />
    </edge>
    <edge id="489.0" from="node_489_start" to="node_489_end" numLanes="1" speed="13.89" type="town" shape="703169.85,3286656.50 703198.79,3286666.29 703198.79,3286666.29 703216.14,3286672.16 703216.14,3286672.16 703242.69,3286681.48 703242.69,3286681.48 703267.30,3286690.33 703267.30,3286690.33 703284.14,3286696.17 703284.14,3286696.17 703308.62,3286704.53 703308.62,3286704.53 703324.83,3286709.74 703324.83,3286709.74 703337.52,3286713.53 703337.52,3286713.53 703348.24,3286716.63">
        <lane index="0" width="3.66" />
    </edge>
    <edge id="490.0" from="node_484_end" to="node_490_end" numLanes="3" speed="13.89" type="town" shape="700764.14,3286282.30 700782.91,3286283.92 700782.91,3286283.92 700809.97,3286286.21 700809.97,3286286.21 700836.01,3286288.42 700836.01,3286288.42 700854.31,3286290.00">
        <lane index="0" width="3.66" type="shoulder" disallow="all" />
        <lane index="1" width="3.66" />
        <lane index="2" width="3.66" />
    </edge>
    <edge id="492.0" from="node_492_start" to="node_492_end" numLanes="3" speed="13.89" type="town" shape="702581.05,3286577.95 702592.70,3286580.21 702592.70,3286580.21 702605.42,3286582.70">
        <lane index="0" width="3.66" type="shoulder" disallow="all" />
        <lane index="1" width="3.66" />
        <lane index="2" width="3.66" />
    </edge>
    <edge id="494.0" from="node_490_end" to="node_494_end" numLanes="3" speed="13.89" type="town" shape="700854.31,3286290.00 700872.54,3286291.55 700872.54,3286291.55 700898.62,3286293.76 700898.62,3286293.76 700906.77,3286294.40">
        <lane index="0" width="3.66" type="shoulder" disallow="all" />
        <lane index="1" width="3.66" />
        <lane index="2" width="3.66" />
    </edge>
    <edge id="495.0" from="node_492_end" to="node_495_end" numLanes="3" speed="13.89" type="town" shape="702605.42,3286582.70 702622.00,3286585.92 702622.00,3286585.92 702644.88,3286590.36 702644.88,3286590.36 702669.05,3286595.10 702669.05,3286595.10 702695.26,3286600.27 702695.26,3286600.27 702721.68,3286605.43 702721.68,3286605.43 702743.73,3286609.80 702743.73,3286609.80 702765.50,3286614.11 702765.50,3286614.11 702789.56,3286618.81 702789.56,3286618.81 702816.34,3286624.07 702816.34,3286624.07 702843.83,3286629.44 702843.83,3286629.44 702870.91,3286634.87 702870.91,3286634.87 702883.01,3286637.25">
        <lane index="0" width="3.66" type="shoulder" disallow="all" />
        <lane index="1" width="3.66" />
        <lane index="2" width="3.66" />
    </edge>
    <edge id="497.0" from="junction_88" to="node_497_end" numLanes="1" speed="13.89" type="town" shape="702514.97,3286557.61 702524.34,3286558.48 702524.34,3286558.48 702543.39,3286560.41 702543.39,3286560.41 702559.91,3286562.04 702559.91,3286562.04 702584.21,3286564.49">
        <lane index="0" width="3.66" />
    </edge>
    <edge id="498.0" from="node_495_end" to="node_498_end" numLanes="3" speed="13.89" type="town" shape="702883.01,3286637.25 702898.61,3286640.36 702898.61,3286640.36 702918.14,3286644.24 702918.14,3286644.24 702938.13,3286648.21 702938.13,3286648.21 702953.18,3286651.14">
        <lane index="0" width="3.66" type="shoulder" disallow="all" />
        <lane index="1" width="3.66" />
        <lane index="2" width="3.66" />
    </edge>
    <edge id="499.0" from="node_494_end" to="junction_88" numLanes="3" speed="13.89" type="town" shape="700906.77,3286294.40 700917.94,3286295.36 700917.94,3286295.36 700935.89,3286296.91 700935.89,3286296.91 700960.82,3286298.97 700960.82,3286298.97 700988.78,3286301.30 700988.78,3286301.30 701010.69,3286303.15 701010.69,3286303.15 701042.04,3286305.88 701042.04,3286305.88 701068.87,3286308.21 701068.87,3286308.21 701091.54,3286310.20 701091.54,3286310.20 701114.02,3286312.07 701114.02,3286312.07 701142.42,3286314.51 701142.42,3286314.51 701175.92,3286317.56 701175.92,3286317.56 701193.71,3286319.30 701193.71,3286319.30 701206.87,3286320.67 701206.87,3286320.67 701228.40,3286323.10 701228.40,3286323.10 701250.67,3286325.79 701250.67,3286325.79 701280.56,3286329.61 701280.56,3286329.61 701313.37,3286334.07 701313.37,3286334.07 701339.71,3286337.82 701339.71,3286337.82 701369.93,3286342.45 701369.93,3286342.45 701397.14,3286346.84 701397.14,3286346.84 701435.76,3286353.39 701435.76,3286353.39 701450.43,3286356.03 701450.43,3286356.03 701469.89,3286359.70 701469.89,3286359.70 701494.21,3286364.29 701494.21,3286364.29 701525.37,3286370.34 701525.37,3286370.34 701549.75,3286375.12 701549.75,3286375.12 701573.51,3286379.75 701573.51,3286379.75 701602.79,3286385.47 701602.79,3286385.47 701636.40,3286392.09 701636.40,3286392.09 701656.98,3286396.15 701656.98,3286396.15 701683.24,3286401.30 701683.24,3286401.30 701713.30,3286407.24 701713.30,3286407.24 701746.92,3286413.86 701746.92,3286413.86 701777.60,3286419.89 701777.60,3286419.89 701813.54,3286426.96 701813.54,3286426.96 701849.61,3286434.07 701849.61,3286434.07 701878.73,3286439.82 701878.73,3286439.82 701914.00,3286446.85 701914.00,3286446.85 701952.70,3286454.54 701952.70,3286454.54 701987.47,3286461.34 701987.47,3286461.34 702027.57,3286469.19 702027.57,3286469.19 702063.19,3286476.15 702063.19,3286476.15 702089.31,3286481.25 702089.31,3286481.25 702119.69,3286487.19 702119.69,3286487.19 702148.13,3286492.80 702148.13,3286492.80 702170.07,3286497.09 702170.07,3286497.09 702191.28,3286501.29 702191.28,3286501.29 702215.07,3286506.00 702215.07,3286506.00 702251.33,3286513.09 702251.33,3286513.09 702287.17,3286520.15 702287.17,3286520.15 702328.20,3286528.18 702328.20,3286528.18 702366.49,3286535.76 702366.49,3286535.76 702397.98,3286541.93 702397.98,3286541.93 702406.33,3286543.60 702406.33,3286543.60 702417.51,3286545.82 702417.51,3286545.82 702428.12,3286547.90 702428.12,3286547.90 702430.83,3286548.44">
        <lane index="0" width="3.66" type="shoulder" disallow="all" />
        <lane index="1" width="3.66" />
        <lane index="2" width="3.66" />
    </edge>
    <edge id="501.0" from="node_497_end" to="node_501_end" numLanes="1" speed="13.89" type="town" shape="702584.21,3286564.49 702602.97,3286566.31 702602.97,3286566.31 702625.42,3286568.75 702625.42,3286568.75 702646.43,3286570.97 702646.43,3286570.97 702664.33,3286572.91 702664.33,3286572.91 702679.58,3286574.49 702679.58,3286574.49 702706.62,3286577.48 702706.62,3286577.48 702732.37,3286580.23 702732.37,3286580.23 702740.89,3286581.18">
        <lane index="0" width="3.66" />
    </edge>
    <edge id="502.0" from="j_merge_end_31" to="node_502_end" numLanes="3" speed="13.89" type="town" shape="703596.34,3286777.41 703605.94,3286779.29 703605.94,3286779.29 703617.72,3286781.60 703617.72,3286781.60 703633.41,3286784.70 703633.41,3286784.70 703646.16,3286787.21 703646.16,3286787.21 703658.92,3286789.71 703658.92,3286789.71 703675.25,3286792.90 703675.25,3286792.90 703699.73,3286797.70 703699.73,3286797.70 703725.08,3286802.69 703725.08,3286802.69 703753.46,3286808.24 703753.46,3286808.24 703778.08,3286813.10 703778.08,3286813.10 703804.71,3286818.29 703804.71,3286818.29 703820.61,3286821.38 703820.61,3286821.38 703844.48,3286826.06 703844.48,3286826.06 703873.29,3286831.68 703873.29,3286831.68 703899.34,3286836.76 703899.34,3286836.76 703924.49,3286841.69 703924.49,3286841.69 703955.43,3286847.80 703955.43,3286847.80 703984.40,3286853.53 703984.40,3286853.53 704011.18,3286858.79 704011.18,3286858.79 704040.37,3286864.52 704040.37,3286864.52 704067.92,3286869.97 704067.92,3286869.97 704099.55,3286876.19 704099.55,3286876.19 704124.49,3286881.12 704124.49,3286881.12 704154.29,3286886.95 704154.29,3286886.95 704178.71,3286891.75 704178.71,3286891.75 704195.10,3286894.97 704195.10,3286894.97 704220.82,3286900.05 704220.82,3286900.05 704250.52,3286905.84 704250.52,3286905.84 704277.86,3286911.23 704277.86,3286911.23 704317.65,3286919.05 704317.65,3286919.05 704340.18,3286923.49 704340.18,3286923.49 704370.53,3286929.30 704370.53,3286929.30 704400.55,3286934.86 704400.55,3286934.86 704418.87,3286938.09 704418.87,3286938.09 704444.72,3286942.43 704444.72,3286942.43 704470.36,3286946.23 704470.36,3286946.23 704489.66,3286948.85 704489.66,3286948.85 704511.32,3286951.48 704511.32,3286951.48 704532.45,3286953.77 704532.45,3286953.77 704553.50,3286955.80 704553.50,3286955.80 704574.70,3286957.56 704574.70,3286957.56 704604.46,3286959.49 704604.46,3286959.49 704618.69,3286960.32 704618.69,3286960.32 704638.77,3286961.30 704638.77,3286961.30 704659.72,3286962.13 704659.72,3286962.13 704683.58,3286963.13 704683.58,3286963.13 704708.30,3286964.11 704708.30,3286964.11 704733.68,3286965.06 704733.68,3286965.06 704766.00,3286966.34">
        <lane index="0" width="3.66" type="shoulder" disallow="all" />
        <lane index="1" width="3.66" />
        <lane index="2" width="3.66" />
    </edge>
    <edge id="504.0" from="node_502_end" to="node_488_start" numLanes="3" speed="13.89" type="town" shape="704766.00,3286966.34 704787.04,3286967.16 704787.04,3286967.16 704809.81,3286967.99 704809.81,3286967.99 704834.65,3286968.99 704834.65,3286968.99 704848.36,3286969.51">
        <lane index="0" width="3.66" type="shoulder" disallow="all" />
        <lane index="1" width="3.66" />
        <lane index="2" width="3.66" />
    </edge>
    <edge id="505.0" from="node_485_end" to="j_merge_start_31" numLanes="2" speed="13.89" type="town" shape="703345.58,3286728.01 703358.15,3286730.53 703358.15,3286730.53 703374.74,3286733.76 703374.74,3286733.76 703396.63,3286738.10 703396.63,3286738.10 703410.22,3286740.75">
        <lane index="0" width="3.66" />
        <lane index="1" width="3.66" />
    </edge>
    <edge id="506.0" from="node_498_end" to="node_485_start" numLanes="3" speed="13.89" type="town" shape="702953.18,3286651.14 702968.02,3286654.07 702968.02,3286654.07 702991.22,3286658.59 702991.22,3286658.59 703021.66,3286664.47">
        <lane index="0" width="3.66" type="shoulder" disallow="all" />
        <lane index="1" width="3.66" />
        <lane index="2" width="3.66" />
    </edge>
    <edge id="507.0" from="junction_88" to="node_492_start" numLanes="2" speed="13.89" type="town" shape="702513.09,3286564.60 702527.09,3286567.35 702527.09,3286567.35 702543.01,3286570.46 702543.01,3286570.46 702554.91,3286572.80 702554.91,3286572.80 702570.74,3286575.89 702570.74,3286575.89 702581.05,3286577.95">
        <lane index="0" width="3.66" />
        <lane index="1" width="3.66" />
    </edge>
    <edge id="511.0" from="node_489_end" to="j_merge_start_31" numLanes="1" speed="13.89" type="town" shape="703348.24,3286716.63 703368.57,3286722.24 703368.57,3286722.24 703386.72,3286727.09 703386.72,3286727.09 703400.63,3286730.72 703400.63,3286730.72 703407.37,3286732.46 703407.37,3286732.46 703412.03,3286733.58">
        <lane index="0" width="3.66" />
    </edge>
    <edge id="513.0" from="node_488_end" to="node_513_end" numLanes="3" speed="13.89" type="town" shape="705576.43,3286997.96 705590.88,3286998.54 705590.88,3286998.54 705612.10,3286999.40 705612.10,3286999.40 705631.90,3287000.13 705631.90,3287000.13 705647.89,3287000.75 705647.89,3287000.75 705666.27,3287001.45">
        <lane index="0" width="3.66" type="shoulder" disallow="all" />
        <lane index="1" width="3.66" />
        <lane index="2" width="3.66" />
    </edge>
    <edge id="514.0" from="junction_89" to="node_514_end" numLanes="2" speed="13.89" type="town" shape="707777.03,3286978.70 707779.85,3286977.57 707779.85,3286977.57 707788.76,3286973.88 707788.76,3286973.88 707804.56,3286967.16 707804.56,3286967.16 707817.74,3286961.54 707817.74,3286961.54 707824.71,3286958.57">
        <lane index="0" width="3.66" />
        <lane index="1" width="3.66" />
    </edge>
    <edge id="515.0" from="node_515_start" to="junction_89" numLanes="3" speed="13.89" type="town" shape="705980.04,3287013.68 705983.94,3287013.84 705983.94,3287013.84 706006.78,3287014.69 706006.78,3287014.69 706024.99,3287015.36 706024.99,3287015.36 706051.35,3287016.36 706051.35,3287016.36 706081.20,3287017.60 706081.20,3287017.60 706100.21,3287018.36 706100.21,3287018.36 706119.68,3287019.13 706119.68,3287019.13 706138.80,3287019.91 706138.80,3287019.91 706156.63,3287020.62 706156.63,3287020.62 706176.33,3287021.43 706176.33,3287021.43 706198.37,3287022.29 706198.37,3287022.29 706220.21,3287023.10 706220.21,3287023.10 706234.87,3287023.68 706234.87,3287023.68 706249.83,3287024.24 706249.83,3287024.24 706265.53,3287024.83 706265.53,3287024.83 706278.51,3287025.36 706278.51,3287025.36 706291.16,3287025.80 706291.16,3287025.80 706304.23,3287026.30 706304.23,3287026.30 706318.11,3287026.83 706318.11,3287026.83 706334.95,3287027.47 706334.95,3287027.47 706348.38,3287027.98 706348.38,3287027.98 706365.32,3287028.64 706365.32,3287028.64 706381.07,3287029.25 706381.07,3287029.25 706397.95,3287029.92 706397.95,3287029.92 706410.85,3287030.45 706410.85,3287030.45 706429.05,3287031.13 706429.05,3287031.13 706446.65,3287031.80 706446.65,3287031.80 706459.88,3287032.29 706459.88,3287032.29 706471.57,3287032.77 706471.57,3287032.77 706484.41,3287033.27 706484.41,3287033.27 706497.75,3287033.80 706497.75,3287033.80 706513.74,3287034.43 706513.74,3287034.43 706526.88,3287034.95 706526.88,3287034.95 706544.05,3287035.64 706544.05,3287035.64 706559.69,3287036.25 706559.69,3287036.25 706580.06,3287037.05 706580.06,3287037.05 706599.63,3287037.84 706599.63,3287037.84 706614.64,3287038.41 706614.64,3287038.41 706630.22,3287039.05 706630.22,3287039.05 706649.74,3287039.80 706649.74,3287039.80 706667.29,3287040.50 706667.29,3287040.50 706683.96,3287041.14 706683.96,3287041.14 706703.76,3287041.90 706703.76,3287041.90 706720.92,3287042.53 706720.92,3287042.53 706737.91,3287043.20 706737.91,3287043.20 706752.87,3287043.79 706752.87,3287043.79 706766.53,3287044.32 706766.53,3287044.32 706783.52,3287044.98 706783.52,3287044.98 706805.19,3287045.82 706805.19,3287045.82 706825.31,3287046.61 706825.31,3287046.61 706847.78,3287047.43 706847.78,3287047.43 706867.53,3287048.20 706867.53,3287048.20 706889.41,3287049.05 706889.41,3287049.05 706905.96,3287049.69 706905.96,3287049.69 706923.57,3287050.36 706923.57,3287050.36 706934.94,3287050.77 706934.94,3287050.77 706950.77,3287051.36 706950.77,3287051.36 706966.61,3287052.02 706966.61,3287052.02 706982.51,3287052.65 706982.51,3287052.65 707002.10,3287053.46 707002.10,3287053.46 707011.39,3287053.82 707011.39,3287053.82 707016.40,3287054.05 707016.40,3287054.05 707024.69,3287054.38 707024.69,3287054.38 707035.29,3287054.84 707035.29,3287054.84 707045.37,3287055.22 707045.37,3287055.22 707056.55,3287055.68 707056.55,3287055.68 707067.51,3287056.10 707067.51,3287056.10 707078.73,3287056.57 707078.73,3287056.57 707088.76,3287056.96 707088.76,3287056.96 707098.38,3287057.34 707098.38,3287057.34 707108.60,3287057.72 707108.60,3287057.72 707121.47,3287058.23 707121.47,3287058.23 707132.68,3287058.69 707132.68,3287058.69 707145.19,3287059.18 707145.19,3287059.18 707158.28,3287059.71 707158.28,3287059.71 707165.88,3287059.98 707165.88,3287059.98 707181.81,3287060.61 707181.81,3287060.61 707197.58,3287061.21 707197.58,3287061.21 707214.02,3287061.87 707214.02,3287061.87 707228.95,3287062.44 707228.95,3287062.44 707242.92,3287062.98 707242.92,3287062.98 707260.04,3287063.59 707260.04,3287063.59 707270.00,3287063.95 707270.00,3287063.95 707280.69,3287064.33 707280.69,3287064.33 707291.90,3287064.68 707291.90,3287064.68 707304.47,3287064.97 707304.47,3287064.97 707315.31,3287065.16 707315.31,3287065.16 707329.81,3287065.31 707329.81,3287065.31 707345.57,3287065.27 707345.57,3287065.27 707358.48,3287065.10 707358.48,3287065.10 707371.13,3287064.82 707371.13,3287064.82 707382.30,3287064.43 707382.30,3287064.43 707396.49,3287063.83 707396.49,3287063.83 707409.41,3287063.06 707409.41,3287063.06 707422.12,3287062.16 707422.12,3287062.16 707435.42,3287061.04 707435.42,3287061.04 707452.68,3287059.37 707452.68,3287059.37 707471.50,3287057.38 707471.50,3287057.38 707489.61,3287055.14 707489.61,3287055.14 707504.46,3287053.11 707504.46,3287053.11 707515.92,3287051.42 707515.92,3287051.42 707528.68,3287049.41 707528.68,3287049.41 707537.58,3287047.88 707537.58,3287047.88 707544.57,3287046.61 707544.57,3287046.61 707558.21,3287044.00 707558.21,3287044.00 707576.59,3287040.29 707576.59,3287040.29 707589.28,3287037.48 707589.28,3287037.48 707598.57,3287035.36 707598.57,3287035.36 707606.11,3287033.55 707606.11,3287033.55 707618.07,3287030.58 707618.07,3287030.58 707626.42,3287028.43 707626.42,3287028.43 707636.65,3287025.75 707636.65,3287025.75 707645.64,3287023.28 707645.64,3287023.28 707653.83,3287020.99 707653.83,3287020.99 707659.65,3287019.36 707659.65,3287019.36 707671.38,3287015.89 707671.38,3287015.89 707678.91,3287013.63 707678.91,3287013.63 707694.89,3287008.55 707694.89,3287008.55 707702.37,3287006.05">
        <lane index="0" width="3.66" type="shoulder" disallow="all" />
        <lane index="1" width="3.66" />
        <lane index="2" width="3.66" />
    </edge>
    <edge id="518.0" from="node_518_start" to="j_merge_start_32" numLanes="2" speed="13.89" type="town" shape="708316.74,3286746.90 708317.91,3286746.40 708317.91,3286746.40 708332.45,3286740.14 708332.45,3286740.14 708346.56,3286734.08 708346.56,3286734.08 708359.85,3286728.33 708359.85,3286728.33 708384.45,3286717.73">
        <lane index="0" width="3.66" />
        <lane index="1" width="3.66" />
    </edge>
    <edge id="522.0" from="node_522_start" to="node_522_end" numLanes="1" speed="13.89" type="town" shape="707818.01,3286944.74 707827.64,3286938.55 707827.64,3286938.55 707835.88,3286933.26 707835.88,3286933.26 707847.23,3286925.91 707847.23,3286925.91 707856.86,3286919.52 707856.86,3286919.52 707869.79,3286910.55 707869.79,3286910.55 707890.62,3286895.27 707890.62,3286895.27 707905.27,3286883.98 707905.27,3286883.98 707931.15,3286862.83 707931.15,3286862.83 707948.23,3286848.15">
        <lane index="0" width="3.66" />
    </edge>
    <edge id="523.0" from="node_523_start" to="node_518_start" numLanes="3" speed="13.89" type="town" shape="708126.06,3286828.98 708127.24,3286828.47 708127.24,3286828.47 708140.13,3286822.93 708140.13,3286822.93 708148.37,3286819.36 708148.37,3286819.36 708161.87,3286813.55 708161.87,3286813.55 708175.35,3286807.75 708175.35,3286807.75 708192.27,3286800.47 708192.27,3286800.47 708200.01,3286797.15 708200.01,3286797.15 708207.39,3286793.97 708207.39,3286793.97 708217.02,3286789.82 708217.02,3286789.82 708228.68,3286784.82 708228.68,3286784.82 708246.09,3286777.35 708246.09,3286777.35 708262.65,3286770.21 708262.65,3286770.21 708282.66,3286761.57 708282.66,3286761.57 708288.95,3286758.87 708288.95,3286758.87 708305.81,3286751.59 708305.81,3286751.59 708316.74,3286746.90">
        <lane index="0" width="3.66" type="shoulder" disallow="all" />
        <lane index="1" width="3.66" />
        <lane index="2" width="3.66" />
    </edge>
    <edge id="525.0" from="node_513_end" to="node_525_end" numLanes="3" speed="13.89" type="town" shape="705666.27,3287001.45 705682.87,3287002.10 705682.87,3287002.10 705695.94,3287002.60">
        <lane index="0" width="3.66" type="shoulder" disallow="all" />
        <lane index="1" width="3.66" />
        <lane index="2" width="3.66" />
    </edge>
    <edge id="526.0" from="node_514_end" to="node_526_end" numLanes="3" speed="13.89" type="town" shape="707824.71,3286958.57 707832.80,3286955.13 707832.80,3286955.13 707845.11,3286949.90 707845.11,3286949.90 707857.66,3286944.54 707857.66,3286944.54 707871.09,3286938.80 707871.09,3286938.80 707880.26,3286934.88 707880.26,3286934.88 707893.50,3286929.24 707893.50,3286929.24 707908.69,3286922.72 707908.69,3286922.72 707931.39,3286912.95 707931.39,3286912.95 707947.03,3286906.22 707947.03,3286906.22 707960.18,3286900.53 707960.18,3286900.53 707978.02,3286892.82">
        <lane index="0" width="3.66" type="shoulder" disallow="all" />
        <lane index="1" width="3.66" />
        <lane index="2" width="3.66" />
    </edge>
    <edge id="527.0" from="node_527_start" to="node_527_end" numLanes="1" speed="13.89" type="town" shape="708186.85,3286770.61 708211.12,3286764.52 708211.12,3286764.52 708234.00,3286758.74 708234.00,3286758.74 708241.96,3286756.68 708241.96,3286756.68 708270.82,3286748.92 708270.82,3286748.92 708284.91,3286744.74 708284.91,3286744.74 708296.45,3286741.04 708296.45,3286741.04 708305.12,3286738.17 708305.12,3286738.17 708312.18,3286735.78">
        <lane index="0" width="3.66" />
    </edge>
    <edge id="528.0" from="junction_89" to="node_522_start" numLanes="1" speed="13.89" type="town" shape="707774.48,3286971.74 707778.20,3286969.45 707778.20,3286969.45 707789.79,3286962.28 707789.79,3286962.28 707800.76,3286955.57 707800.76,3286955.57 707812.02,3286948.47 707812.02,3286948.47 707818.01,3286944.74">
        <lane index="0" width="3.66" />
    </edge>
    <edge id="529.0" from="node_529_start" to="node_529_end" numLanes="3" speed="13.89" type="town" shape="705847.60,3287008.47 705863.80,3287009.08 705863.80,3287009.08 705880.14,3287009.75 705880.14,3287009.75 705901.49,3287010.60 705901.49,3287010.60 705924.13,3287011.50 705924.13,3287011.50 705938.28,3287012.04">
        <lane index="0" width="3.66" type="shoulder" disallow="all" />
        <lane index="1" width="3.66" />
        <lane index="2" width="3.66" />
    </edge>
    <edge id="530.0" from="node_530_start" to="node_523_start" numLanes="3" speed="13.89" type="town" shape="708061.42,3286856.83 708064.96,3286855.30 708064.96,3286855.30 708080.02,3286848.82 708080.02,3286848.82 708093.41,3286843.03 708093.41,3286843.03 708109.45,3286836.11 708109.45,3286836.11 708126.06,3286828.98">
        <lane index="0" width="3.66" type="shoulder" disallow="all" />
        <lane index="1" width="3.66" />
        <lane index="2" width="3.66" />
    </edge>
    <edge id="532.0" from="j_merge_end_32" to="node_532_end" numLanes="3" speed="13.89" type="town" shape="708531.38,3286654.48 708539.84,3286650.86 708539.84,3286650.86 708555.58,3286644.07 708555.58,3286644.07 708567.76,3286638.81 708567.76,3286638.81 708584.24,3286631.69 708584.24,3286631.69 708599.04,3286625.35 708599.04,3286625.35 708610.39,3286620.47 708610.39,3286620.47 708632.48,3286610.95 708632.48,3286610.95 708646.33,3286605.00 708646.33,3286605.00 708659.53,3286599.29 708659.53,3286599.29 708669.12,3286595.16 708669.12,3286595.16 708679.47,3286590.72 708679.47,3286590.72 708692.55,3286585.08 708692.55,3286585.08 708705.69,3286579.42 708705.69,3286579.42 708717.13,3286574.48 708717.13,3286574.48 708732.02,3286568.08 708732.02,3286568.08 708748.53,3286560.94 708748.53,3286560.94 708771.51,3286551.10 708771.51,3286551.10 708791.11,3286542.66 708791.11,3286542.66 708809.07,3286534.97 708809.07,3286534.97 708828.45,3286526.62 708828.45,3286526.62 708847.63,3286518.40 708847.63,3286518.40 708864.10,3286511.32 708864.10,3286511.32 708879.58,3286504.66 708879.58,3286504.66 708892.02,3286499.30 708892.02,3286499.30 708905.69,3286493.39 708905.69,3286493.39 708915.65,3286489.11">
        <lane index="0" width="3.66" type="shoulder" disallow="all" />
        <lane index="1" width="3.66" />
        <lane index="2" width="3.66" />
    </edge>
    <edge id="533.0" from="node_529_end" to="node_515_start" numLanes="3" speed="13.89" type="town" shape="705938.28,3287012.04 705964.18,3287013.03 705964.18,3287013.03 705980.04,3287013.68">
        <lane index="0" width="3.66" type="shoulder" disallow="all" />
        <lane index="1" width="3.66" />
        <lane index="2" width="3.66" />
    </edge>
    <edge id="536.0" from="node_525_end" to="node_529_start" numLanes="3" speed="13.89" type="town" shape="705695.94,3287002.60 705701.95,3287002.83 705701.95,3287002.83 705718.64,3287003.47 705718.64,3287003.47 705733.73,3287004.04 705733.73,3287004.04 705758.28,3287005.00 705758.28,3287005.00 705777.78,3287005.71 705777.78,3287005.71 705799.72,3287006.57 705799.72,3287006.57 705817.72,3287007.25 705817.72,3287007.25 705839.63,3287008.17 705839.63,3287008.17 705847.60,3287008.47">
        <lane index="0" width="3.66" type="shoulder" disallow="all" />
        <lane index="1" width="3.66" />
        <lane index="2" width="3.66" />
    </edge>
    <edge id="538.0" from="node_527_end" to="j_merge_start_32" numLanes="1" speed="13.89" type="town" shape="708312.18,3286735.78 708316.98,3286734.14 708316.98,3286734.14 708325.36,3286731.16 708325.36,3286731.16 708333.15,3286728.45 708333.15,3286728.45 708340.15,3286725.96 708340.15,3286725.96 708347.16,3286723.49 708347.16,3286723.49 708357.71,3286719.65 708357.71,3286719.65 708366.75,3286716.41 708366.75,3286716.41 708372.91,3286714.18 708372.91,3286714.18 708381.64,3286710.95">
        <lane index="0" width="3.66" />
    </edge>
    <edge id="539.0" from="node_526_end" to="node_530_start" numLanes="3" speed="13.89" type="town" shape="707978.02,3286892.82 707981.76,3286891.20 707981.76,3286891.20 708002.07,3286882.48 708002.07,3286882.48 708024.58,3286872.72 708024.58,3286872.72 708038.60,3286866.70 708038.60,3286866.70 708046.15,3286863.42 708046.15,3286863.42 708058.32,3286858.17 708058.32,3286858.17 708061.42,3286856.83">
        <lane index="0" width="3.66" type="shoulder" disallow="all" />
        <lane index="1" width="3.66" />
        <lane index="2" width="3.66" />
    </edge>
    <edge id="merge_zone_31" from="j_merge_start_31" to="j_merge_end_31" numLanes="3" speed="13.89" name="Merge zone 31" type="highway_merge" shape="703478.63,3286754.26 703478.63,3286754.26 703502.18,3286758.87 703502.18,3286758.87 703515.85,3286761.58 703515.85,3286761.58 703533.63,3286765.11 703533.63,3286765.11 703553.74,3286769.09">
        <lane index="0" width="3.66" />
        <lane index="1" width="3.66" />
        <lane index="2" width="3.66" />
    </edge>
    <edge id="merge_zone_32" from="j_merge_start_32" to="j_merge_end_32" numLanes="3" speed="13.89" name="Merge zone 32" type="highway_merge" shape="708434.97,3286695.99 708434.97,3286695.99 708450.99,3286689.09 708450.99,3286689.09 708464.37,3286683.35 708464.37,3286683.35 708474.00,3286679.19 708474.00,3286679.19 708484.84,3286674.53 708484.84,3286674.53 708493.08,3286670.99">