<?xml version="1.0" encoding="UTF-8"?>

<!-- generated on 2025-10-19 17:33:41 by Eclipse SUMO netconvert Version 1.23.1
<netconvertConfiguration xmlns:xsi="http://www.w3.org/2001/XMLSchema-instance" xsi:noNamespaceSchemaLocation="http://sumo.dlr.de/xsd/netconvertConfiguration.xsd">

    <input>
        <node-files value="/home/sdai/harry/TeraSim/jupiter/wb/jupiter_wb_tiles/tile_0019/tile_0019.nod.xml"/>
        <edge-files value="/home/sdai/harry/TeraSim/jupiter/wb/jupiter_wb_tiles/tile_0019/tile_0019.edg.xml"/>
        <connection-files value="/home/sdai/harry/TeraSim/jupiter/wb/jupiter_wb_tiles/tile_0019/tile_0019.con.xml"/>
    </input>

    <output>
        <output-file value="/home/sdai/harry/TeraSim/jupiter/wb/jupiter_wb_tiles/tile_0019/tile_0019.net.xml"/>
        <output.street-names value="true"/>
        <output.original-names value="true"/>
    </output>

    <processing>
        <geometry.remove value="false"/>
        <geometry.min-dist value="0.5"/>
        <edges.join value="false"/>
    </processing>

    <junctions>
        <no-internal-links value="false"/>
        <no-turnarounds value="true"/>
        <junctions.join value="true"/>
        <junctions.join-dist value="10"/>
        <junctions.corner-detail value="5"/>
        <junctions.internal-link-detail value="5"/>
        <junctions.limit-turn-speed value="5.5"/>
        <rectangular-lane-cut value="true"/>
        <check-lane-foes.all value="true"/>
    </junctions>

</netconvertConfiguration>
-->

<net version="1.20" junctionCornerDetail="5" junctionLinkDetail="5" rectangularLaneCut="true" limitTurnSpeed="5.50" checkLaneFoesAll="1" xmlns:xsi="http://www.w3.org/2001/XMLSchema-instance" xsi:noNamespaceSchemaLocation="http://sumo.dlr.de/xsd/net_file.xsd">

    <location netOffset="-586353.94,-3267045.71" convBoundary="0.00,0.00,9302.93,4836.49" origBoundary="0.00,0.00,595656.87,3271882.20" projParameter="!"/>

    <edge id=":j_merge_end_48_0" function="internal">
        <lane id=":j_merge_end_48_0_0" index="0" speed="13.89" length="34.72" width="3.66" shape="3073.72,1025.15 3065.17,1020.65 3058.96,1015.59 3052.74,1010.53 3044.19,1006.04"/>
        <lane id=":j_merge_end_48_0_1" index="1" speed="13.89" length="34.72" width="3.66" shape="3075.03,1021.73 3042.88,1009.46"/>
        <lane id=":j_merge_end_48_0_2" index="2" speed="13.89" length="34.72" width="3.66" shape="3076.34,1018.31 3044.19,1006.04"/>
    </edge>
    <edge id=":j_merge_start_48_0" function="internal">
        <lane id=":j_merge_start_48_0_0" index="0" speed="13.89" length="62.88" width="3.66" shape="3246.63,1091.80 3237.60,1087.97 3220.95,1081.47 3202.51,1074.42 3188.08,1068.89"/>
    </edge>
    <edge id=":j_merge_start_48_1" function="internal">
        <lane id=":j_merge_start_48_1_0" index="0" speed="13.89" length="61.40" width="3.66" shape="3246.74,1087.47 3189.40,1065.48"/>
        <lane id=":j_merge_start_48_1_1" index="1" speed="13.89" length="61.40" width="3.66" shape="3248.04,1084.05 3190.72,1062.07"/>
    </edge>
    <edge id=":junction_107_0" function="internal">
        <lane id=":junction_107_0_0" index="0" speed="13.89" length="182.17" width="3.66" shape="3973.47,1365.37 3941.42,1353.74 3884.21,1333.29 3828.72,1313.63 3801.82,1304.36"/>
    </edge>
    <edge id=":junction_107_1" function="internal">
        <lane id=":junction_107_1_0" index="0" speed="13.89" length="182.39" width="3.66" shape="3973.47,1365.37 3803.05,1300.39"/>
        <lane id=":junction_107_1_1" index="1" speed="13.89" length="182.39" width="3.66" shape="3974.78,1361.95 3804.35,1296.97"/>
    </edge>
    <edge id=":junction_108_0" function="internal">
        <lane id=":junction_108_0_0" index="0" speed="13.89" length="45.96" width="3.66" shape="7657.86,3738.07 7618.78,3713.88"/>
    </edge>
    <edge id=":junction_108_1" function="internal">
        <lane id=":junction_108_1_0" index="0" speed="13.89" length="45.86" width="3.66" shape="7659.96,3735.08 7622.44,3708.70"/>
        <lane id=":junction_108_1_1" index="1" speed="13.89" length="45.86" width="3.66" shape="7662.07,3732.09 7624.57,3705.72"/>
    </edge>
    <edge id=":junction_110_0" function="internal">
        <lane id=":junction_110_0_0" index="0" speed="13.89" length="146.02" width="3.66" shape="2651.29,859.80 2513.52,811.40"/>
    </edge>
    <edge id=":junction_110_1" function="internal">
        <lane id=":junction_110_1_0" index="0" speed="13.89" length="146.12" width="3.66" shape="2651.29,859.80 2514.79,807.65"/>
        <lane id=":junction_110_1_1" index="1" speed="13.89" length="146.12" width="3.66" shape="2652.59,856.38 2516.10,804.23"/>
    </edge>
    <edge id=":junction_43_0" function="internal">
        <lane id=":junction_43_0_0" index="0" speed="13.89" length="44.79" width="3.66" shape="7203.19,3297.54 7177.84,3260.61"/>
    </edge>
    <edge id=":junction_43_1" function="internal">
        <lane id=":junction_43_1_0" index="0" speed="13.89" length="44.60" width="3.66" shape="7208.17,3293.52 7180.72,3258.36"/>
        <lane id=":junction_43_1_1" index="1" speed="13.89" length="44.60" width="3.66" shape="7211.06,3291.27 7183.61,3256.11"/>
    </edge>
    <edge id=":junction_44_0" function="internal">
        <lane id=":junction_44_0_0" index="0" speed="13.89" length="76.52" width="3.66" shape="8620.09,4411.02 8610.71,4403.62 8592.75,4389.97 8573.18,4375.35 8558.95,4365.02"/>
    </edge>
    <edge id=":junction_44_1" function="internal">
        <lane id=":junction_44_1_0" index="0" speed="13.89" length="76.58" width="3.66" shape="8623.80,4405.91 8561.04,4362.02"/>
        <lane id=":junction_44_1_1" index="1" speed="13.89" length="76.58" width="3.66" shape="8625.88,4402.90 8563.13,4359.01"/>
    </edge>
    <edge id=":junction_45_0" function="internal">
        <lane id=":junction_45_0_0" index="0" speed="13.89" length="28.36" width="3.66" shape="6148.63,2213.95 6144.86,2211.39 6139.75,2207.86 6133.05,2203.66 6124.51,2199.08"/>
    </edge>
    <edge id=":junction_45_1" function="internal">
        <lane id=":junction_45_1_0" index="0" speed="13.89" length="28.58" width="3.66" shape="6151.76,2208.37 6126.12,2195.80"/>
        <lane id=":junction_45_1_1" index="1" speed="13.89" length="28.58" width="3.66" shape="6153.41,2205.10 6127.73,2192.51"/>
    </edge>
    <edge id=":junction_47_0" function="internal">
        <lane id=":junction_47_0_0" index="0" speed="13.89" length="33.04" width="3.66" shape="1896.73,599.07 1892.02,596.95 1885.04,593.90 1876.24,590.39 1866.04,586.90"/>
    </edge>
    <edge id=":junction_47_1" function="internal">
        <lane id=":junction_47_1_0" index="0" speed="13.89" length="33.23" width="3.66" shape="1898.91,593.12 1867.13,583.40"/>
        <lane id=":junction_47_1_1" index="1" speed="13.89" length="33.23" width="3.66" shape="1899.98,589.62 1868.21,579.91"/>
    </edge>
    <edge id=":node_583_start_0" function="internal">
        <lane id=":node_583_start_0_0" index="0" speed="13.89" length="8.09" width="3.66" shape="5955.64,2123.70 5948.14,2120.65"/>
    </edge>
    <edge id=":node_583_start_1" function="internal">
        <lane id=":node_583_start_1_0" index="0" speed="13.89" length="7.99" width="3.66" shape="5955.62,2123.49 5948.14,2120.65"/>
        <lane id=":node_583_start_1_1" index="1" speed="13.89" length="7.99" width="3.66" shape="5956.91,2120.07 5949.44,2117.23"/>
    </edge>
    <edge id=":node_584_end_0" function="internal">
        <lane id=":node_584_end_0_0" index="0" speed="13.89" length="4.84" width="3.66" shape="7740.45,3791.49 7735.77,3792.68"/>
        <lane id=":node_584_end_0_1" index="1" speed="13.89" length="4.84" width="3.66" shape="7742.54,3788.48 7737.86,3789.68"/>
    </edge>
    <edge id=":node_584_end_2" function="internal">
        <lane id=":node_584_end_2_0" index="0" speed="13.89" length="7.32" width="3.66" shape="7738.69,3793.89 7739.95,3786.67"/>
    </edge>
    <edge id=":node_584_start_0" function="internal">
        <lane id=":node_584_start_0_0" index="0" speed="13.89" length="7.88" width="3.66" shape="7802.65,3835.04 7796.11,3830.64"/>
    </edge>
    <edge id=":node_584_start_1" function="internal">
        <lane id=":node_584_start_1_0" index="0" speed="13.89" length="8.10" width="3.66" shape="7802.65,3835.04 7796.00,3830.41"/>
        <lane id=":node_584_start_1_1" index="1" speed="13.89" length="8.10" width="3.66" shape="7804.74,3832.03 7798.10,3827.40"/>
    </edge>
    <edge id=":node_585_end_0" function="internal">
        <lane id=":node_585_end_0_0" index="0" speed="13.89" length="3.38" width="3.66" shape="7125.46,3193.32 7123.19,3190.81"/>
    </edge>
    <edge id=":node_585_end_1" function="internal">
        <lane id=":node_585_end_1_0" index="0" speed="13.89" length="3.00" width="3.66" shape="7128.35,3191.08 7126.52,3188.70"/>
        <lane id=":node_585_end_1_1" index="1" speed="13.89" length="3.00" width="3.66" shape="7131.25,3188.84 7129.41,3186.46"/>
    </edge>
    <edge id=":node_587_end_0" function="internal">
        <lane id=":node_587_end_0_0" index="0" speed="13.89" length="3.43" width="3.66" shape="8527.48,4342.95 8526.73,4342.28 8526.35,4341.69 8525.97,4341.09 8525.24,4340.39"/>
    </edge>
    <edge id=":node_587_end_1" function="internal">
        <lane id=":node_587_end_1_0" index="0" speed="13.89" length="2.99" width="3.66" shape="8529.57,4339.94 8527.11,4338.23"/>
        <lane id=":node_587_end_1_1" index="1" speed="13.89" length="2.99" width="3.66" shape="8531.65,4336.93 8529.20,4335.23"/>
    </edge>
    <edge id=":node_589_start_0" function="internal">
        <lane id=":node_589_start_0_0" index="0" speed="13.89" length="8.09" width="3.66" shape="8463.78,4294.21 8457.26,4289.42"/>
    </edge>
    <edge id=":node_589_start_1" function="internal">
        <lane id=":node_589_start_1_0" index="0" speed="13.89" length="8.02" width="3.66" shape="8463.84,4294.01 8457.26,4289.42"/>
        <lane id=":node_589_start_1_1" index="1" speed="13.89" length="8.02" width="3.66" shape="8465.94,4291.00 8459.36,4286.42"/>
    </edge>
    <edge id=":node_596_end_0" function="internal">
        <lane id=":node_596_end_0_0" index="0" speed="13.89" length="3.08" width="3.66" shape="6040.33,2161.05 6037.59,2159.64"/>
    </edge>
    <edge id=":node_596_end_1" function="internal">
        <lane id=":node_596_end_1_0" index="0" speed="13.89" length="2.99" width="3.66" shape="6041.76,2157.68 6039.01,2156.51"/>
        <lane id=":node_596_end_1_1" index="1" speed="13.89" length="2.99" width="3.66" shape="6043.19,2154.31 6040.45,2153.14"/>
    </edge>
    <edge id=":node_597_start_0" function="internal">
        <lane id=":node_597_start_0_0" index="0" speed="13.89" length="2.98" width="3.66" shape="9115.38,4723.58 9112.91,4721.97"/>
        <lane id=":node_597_start_0_1" index="1" speed="13.89" length="2.98" width="3.66" shape="9117.40,4720.53 9114.87,4718.89"/>
    </edge>
    <edge id=":node_599_start_0" function="internal">
        <lane id=":node_599_start_0_0" index="0" speed="13.89" length="93.92" width="3.66" shape="7121.82,3188.89 7067.19,3112.50"/>
    </edge>
    <edge id=":node_599_start_1" function="internal">
        <lane id=":node_599_start_1_0" index="0" speed="13.89" length="93.94" width="3.66" shape="7124.90,3186.61 7067.19,3112.50"/>
        <lane id=":node_599_start_1_1" index="1" speed="13.89" length="93.94" width="3.66" shape="7127.79,3184.37 7070.07,3110.25"/>
    </edge>
    <edge id=":node_613_end_0" function="internal">
        <lane id=":node_613_end_0_0" index="0" speed="13.89" length="0.10" width="3.66" shape="9168.72,4759.12 9168.59,4759.03"/>
        <lane id=":node_613_end_0_1" index="1" speed="13.89" length="0.10" width="3.66" shape="9170.67,4756.02 9170.62,4755.99"/>
    </edge>
    <edge id=":node_623_start_0" function="internal">
        <lane id=":node_623_start_0_0" index="0" speed="13.89" length="0.29" width="3.66" shape="3785.01,1300.28 3784.73,1300.21"/>
    </edge>
    <edge id=":node_625_start_0" function="internal">
        <lane id=":node_625_start_0_0" index="0" speed="13.89" length="8.08" width="3.66" shape="1629.51,510.26 1621.84,507.72"/>
    </edge>
    <edge id=":node_625_start_1" function="internal">
        <lane id=":node_625_start_1_0" index="0" speed="13.89" length="8.00" width="3.66" shape="1629.48,510.08 1621.84,507.72"/>
        <lane id=":node_625_start_1_1" index="1" speed="13.89" length="8.00" width="3.66" shape="1630.56,506.59 1622.92,504.22"/>
    </edge>
    <edge id=":node_629_end_0" function="internal">
        <lane id=":node_629_end_0_0" index="0" speed="13.89" length="3.46" width="3.66" shape="1704.46,537.14 1701.15,536.15"/>
    </edge>
    <edge id=":node_629_end_1" function="internal">
        <lane id=":node_629_end_1_0" index="0" speed="13.89" length="3.00" width="3.66" shape="1705.54,533.64 1702.67,532.76"/>
        <lane id=":node_629_end_1_1" index="1" speed="13.89" length="3.00" width="3.66" shape="1706.61,530.14 1703.74,529.26"/>
    </edge>
    <edge id=":node_630_end_0" function="internal">
        <lane id=":node_630_end_0_0" index="0" speed="13.89" length="3.00" width="3.66" shape="3264.54,1094.24 3261.75,1093.18"/>
        <lane id=":node_630_end_0_1" index="1" speed="13.89" length="3.00" width="3.66" shape="3265.86,1090.83 3263.05,1089.75"/>
    </edge>
    <edge id=":node_630_start_0" function="internal">
        <lane id=":node_630_start_0_0" index="0" speed="13.89" length="3.00" width="3.66" shape="3788.35,1294.82 3785.54,1293.74"/>
        <lane id=":node_630_start_0_1" index="1" speed="13.89" length="3.00" width="3.66" shape="3789.65,1291.40 3786.86,1290.33"/>
    </edge>
    <edge id=":node_632_start_0" function="internal">
        <lane id=":node_632_start_0_0" index="0" speed="13.89" length="3.00" width="3.66" shape="2486.14,796.70 2483.34,795.63"/>
        <lane id=":node_632_start_0_1" index="1" speed="13.89" length="3.00" width="3.66" shape="2487.45,793.28 2484.65,792.21"/>
    </edge>
    <edge id=":node_636_start_0" function="internal">
        <lane id=":node_636_start_0_0" index="0" speed="13.89" length="0.30" width="3.66" shape="2482.56,802.19 2482.28,802.10"/>
    </edge>
    <edge id=":node_637_end_0" function="internal">
        <lane id=":node_637_end_0_0" index="0" speed="13.89" length="0.29" width="3.66" shape="3261.04,1099.74 3260.78,1099.60"/>
    </edge>

    <edge id="583.0" from="node_583_start" to="junction_107" priority="-1" type="town" shape="5953.80,2116.93 5947.19,2114.42 5929.55,2107.72 5909.14,2099.84 5887.36,2091.51 5861.15,2081.39 5822.30,2066.61 5807.12,2060.80 5797.45,2057.10 5792.58,2055.21 5762.44,2043.67 5739.63,2035.04 5707.55,2022.67 5670.89,2008.78 5635.97,1995.62 5615.66,1987.77 5593.10,1979.16 5581.44,1974.71 5542.53,1959.83 5526.64,1953.75 5498.41,1942.95 5463.80,1929.82 5436.48,1919.42 5411.31,1909.73 5390.35,1901.69 5359.20,1889.69 5317.56,1873.77 5310.10,1870.92 5304.33,1868.71 5292.22,1864.08 5269.18,1855.31 5246.06,1846.39 5211.80,1833.35 5166.50,1816.14 5131.41,1802.73 5097.14,1789.61 5051.37,1772.04 5016.74,1758.77 4982.50,1745.64 4959.50,1736.79 4948.46,1732.52 4936.36,1727.88 4924.79,1723.50 4878.73,1705.83 4833.36,1688.46 4786.89,1670.76 4740.38,1652.84 4694.54,1635.21 4649.11,1617.84 4625.64,1608.88 4590.95,1595.62 4556.50,1582.58 4510.61,1565.05 4442.48,1539.01 4396.45,1521.42 4350.55,1503.79 4293.00,1481.74 4270.12,1473.06 4189.81,1442.34 4155.12,1429.06 4108.95,1411.38 4063.41,1393.89 4017.26,1376.27 3975.43,1360.24">
        <lane id="583.0_0" index="0" disallow="all" speed="13.89" length="2114.19" width="3.66" shape="5946.84,2124.08 5943.94,2122.97 5926.28,2116.26 5905.86,2108.38 5884.08,2100.05 5857.88,2089.93 5819.04,2075.16 5803.85,2069.35 5794.17,2065.64 5789.29,2063.75 5759.18,2052.22 5736.37,2043.59 5704.28,2031.22 5667.66,2017.34 5632.71,2004.17 5612.38,1996.31 5589.84,1987.71 5578.17,1983.26 5539.26,1968.38 5523.37,1962.30 5495.15,1951.50 5460.55,1938.37 5433.21,1927.97 5408.03,1918.27 5387.07,1910.23 5355.92,1898.23 5314.29,1882.32 5306.83,1879.47 5301.06,1877.26 5288.96,1872.63 5265.91,1863.85 5242.79,1854.93 5208.55,1841.90 5163.24,1824.69 5128.14,1811.28 5093.86,1798.15 5048.09,1780.58 5013.46,1767.31 4979.22,1754.18 4956.21,1745.33 4945.17,1741.06 4933.10,1736.43 4921.53,1732.05 4875.46,1714.37 4830.10,1697.01 4783.62,1679.30 4737.09,1661.38 4691.26,1643.75 4645.84,1626.39 4622.37,1617.43 4587.70,1604.17 4553.25,1591.13 4507.34,1573.60 4439.21,1547.56 4393.18,1529.96 4347.27,1512.33 4289.73,1490.29 4266.86,1481.61 4186.54,1450.89 4151.85,1437.61 4105.67,1419.92 4060.14,1402.43 4013.99,1384.82 3972.16,1368.78" type="shoulder"/>
        <lane id="583.0_1" index="1" speed="13.89" length="2114.19" width="3.66" shape="5948.14,2120.65 5945.24,2119.55 5927.59,2112.85 5907.17,2104.96 5885.39,2096.63 5859.19,2086.52 5820.34,2071.74 5805.16,2065.93 5795.48,2062.22 5790.61,2060.33 5760.49,2048.80 5737.67,2040.17 5705.59,2027.80 5668.95,2013.92 5634.01,2000.75 5613.69,1992.90 5591.14,1984.29 5579.48,1979.84 5540.57,1964.96 5524.68,1958.88 5496.46,1948.08 5461.85,1934.95 5434.52,1924.55 5409.34,1914.85 5388.38,1906.81 5357.23,1894.82 5315.60,1878.90 5308.14,1876.05 5302.37,1873.84 5290.26,1869.21 5267.22,1860.44 5244.10,1851.52 5209.85,1838.48 5164.55,1821.27 5129.45,1807.86 5095.17,1794.74 5049.40,1777.17 5014.77,1763.90 4980.53,1750.77 4957.53,1741.91 4946.49,1737.64 4934.41,1733.01 4922.83,1728.63 4876.77,1710.96 4831.40,1693.59 4784.93,1675.89 4738.41,1657.96 4692.57,1640.34 4647.15,1622.97 4623.68,1614.01 4589.00,1600.75 4554.55,1587.71 4508.65,1570.18 4440.52,1544.14 4394.49,1526.55 4348.58,1508.92 4291.04,1486.87 4268.17,1478.19 4187.85,1447.47 4153.16,1434.19 4106.98,1416.51 4061.45,1399.02 4015.30,1381.40 3973.47,1365.37"/>
        <lane id="583.0_2" index="2" speed="13.89" length="2114.19" width="3.66" shape="5949.44,2117.23 5946.54,2116.13 5928.90,2109.43 5908.48,2101.55 5886.70,2093.22 5860.50,2083.10 5821.65,2068.32 5806.47,2062.51 5796.79,2058.81 5791.92,2056.92 5761.79,2045.38 5738.98,2036.75 5706.90,2024.38 5670.24,2010.49 5635.32,1997.33 5615.00,1989.48 5592.45,1980.87 5580.79,1976.42 5541.88,1961.54 5525.99,1955.46 5497.76,1944.66 5463.15,1931.53 5435.83,1921.13 5410.65,1911.44 5389.69,1903.40 5358.54,1891.40 5316.91,1875.48 5309.45,1872.63 5303.68,1870.42 5291.57,1865.79 5268.53,1857.02 5245.41,1848.10 5211.15,1835.06 5165.85,1817.85 5130.76,1804.44 5096.48,1791.32 5050.71,1773.75 5016.08,1760.48 4981.84,1747.35 4958.84,1738.50 4947.80,1734.23 4935.71,1729.59 4924.14,1725.21 4878.08,1707.54 4832.71,1690.17 4786.24,1672.47 4739.72,1654.55 4693.88,1636.92 4648.46,1619.55 4624.99,1610.59 4590.30,1597.33 4555.85,1584.29 4509.96,1566.76 4441.83,1540.72 4395.80,1523.13 4349.89,1505.50 4292.35,1483.45 4269.47,1474.77 4189.16,1444.05 4154.47,1430.77 4108.29,1413.09 4062.76,1395.60 4016.61,1377.98 3974.78,1361.95"/>
    </edge>
    <edge id="584.0" from="node_584_start" to="node_584_end" priority="-1" type="town" shape="7802.53,3828.26 7797.82,3824.98 7784.56,3815.66 7773.79,3808.16 7758.27,3797.22 7742.21,3786.02">
        <lane id="584.0_0" index="0" speed="13.89" length="67.83" width="3.66" shape="7796.00,3830.41 7794.67,3829.48 7781.41,3820.16 7770.64,3812.66 7755.12,3801.72 7740.45,3791.49"/>
        <lane id="584.0_1" index="1" speed="13.89" length="67.83" width="3.66" shape="7798.10,3827.40 7796.77,3826.48 7783.51,3817.16 7772.74,3809.66 7757.22,3798.72 7742.54,3788.48"/>
    </edge>
    <edge id="585.0" from="junction_43" to="node_585_end" priority="-1" type="town" shape="7185.05,3254.98 7181.69,3250.68 7176.40,3243.83 7170.91,3236.75 7164.85,3229.00 7158.20,3220.43 7151.12,3211.39 7142.97,3200.95 7135.85,3191.79 7131.80,3186.56">
        <lane id="585.0_0" index="0" speed="13.89" length="85.26" width="3.66" shape="7177.84,3260.61 7174.46,3256.29 7169.16,3249.43 7163.69,3242.37 7157.63,3234.62 7150.98,3226.06 7143.91,3217.03 7135.75,3206.57 7128.62,3197.40 7125.46,3193.32"/>
        <lane id="585.0_1" index="1" speed="13.89" length="85.26" width="3.66" shape="7180.72,3258.36 7177.35,3254.05 7172.06,3247.19 7166.58,3240.12 7160.52,3232.37 7153.87,3223.81 7146.79,3214.77 7138.64,3204.32 7131.51,3195.16 7128.35,3191.08"/>
        <lane id="585.0_2" index="2" speed="13.89" length="85.26" width="3.66" shape="7183.61,3256.11 7180.24,3251.80 7174.95,3244.95 7169.47,3237.87 7163.41,3230.12 7156.76,3221.56 7149.68,3212.52 7141.53,3202.07 7134.40,3192.91 7131.25,3188.84"/>
    </edge>
    <edge id="587.0" from="junction_44" to="node_587_end" priority="-1" type="town" shape="8564.17,4357.51 8557.08,4352.58 8546.83,4345.39 8539.61,4340.27 8533.22,4335.79 8531.46,4334.57">
        <lane id="587.0_0" index="0" speed="13.89" length="38.44" width="3.66" shape="8558.95,4365.02 8551.84,4360.08 8541.56,4352.87 8534.34,4347.75 8527.98,4343.29 8527.48,4342.95"/>
        <lane id="587.0_1" index="1" speed="13.89" length="38.44" width="3.66" shape="8561.04,4362.02 8553.93,4357.08 8543.67,4349.88 8536.45,4344.76 8530.07,4340.29 8529.57,4339.94"/>
        <lane id="587.0_2" index="2" speed="13.89" length="38.44" width="3.66" shape="8563.13,4359.01 8556.03,4354.08 8545.78,4346.89 8538.56,4341.77 8532.17,4337.29 8531.65,4336.93"/>
    </edge>
    <edge id="589.0" from="node_589_start" to="node_584_start" priority="-1" type="town" shape="8463.68,4287.20 8463.14,4286.83 8443.07,4272.80 8419.73,4256.54 8395.51,4239.62 8377.81,4227.30 8360.47,4215.22 8342.71,4202.79 8328.19,4192.67 8317.47,4185.21 8306.22,4177.35 8293.73,4168.64 8284.35,4162.06 8276.13,4156.30 8267.63,4150.41 8259.52,4144.65 8249.21,4137.51 8236.15,4128.37 8224.85,4120.53 8212.48,4111.88 8201.31,4104.08 8188.95,4095.44 8182.94,4091.24 8178.35,4088.00 8169.58,4081.87 8157.03,4073.16 8148.56,4067.12 8136.62,4058.88 8123.42,4050.00 8113.31,4043.24 8102.36,4035.99 8096.64,4032.27 8086.20,4025.53 8057.68,4006.27 8043.31,3996.21 8033.88,3989.69 8029.54,3986.60 8022.26,3981.49 8013.73,3975.63 8003.09,3968.07 7991.82,3960.34 7979.67,3951.85 7969.46,3944.77 7958.18,3936.93 7947.68,3929.65 7937.52,3922.49 7925.40,3914.04 7914.46,3906.40 7900.80,3896.77 7888.82,3888.40 7873.35,3877.60 7861.08,3868.98 7848.25,3860.01 7835.88,3851.52 7825.30,3844.02 7811.58,3834.57 7802.53,3828.26">
        <lane id="589.0_0" index="0" disallow="all" speed="13.89" length="796.88" width="3.66" shape="8455.16,4292.42 8437.83,4280.30 8414.49,4264.04 8390.28,4247.12 8372.58,4234.81 8355.23,4222.72 8337.47,4210.29 8322.96,4200.18 8312.24,4192.72 8300.98,4184.85 8288.49,4176.14 8279.10,4169.55 8270.90,4163.81 8262.37,4157.90 8254.27,4152.14 8243.98,4145.02 8230.92,4135.88 8219.62,4128.04 8207.24,4119.38 8196.07,4111.58 8183.71,4102.94 8177.68,4098.73 8173.10,4095.49 8164.35,4089.38 8151.77,4080.64 8143.30,4074.61 8131.47,4066.44 8118.32,4057.60 8108.24,4050.86 8097.33,4043.63 8091.67,4039.95 8081.16,4033.17 8052.50,4013.81 8038.08,4003.72 8028.64,3997.19 8024.26,3994.08 8017.04,3989.01 8008.49,3983.13 7997.85,3975.57 7986.61,3967.86 7974.44,3959.36 7964.24,3952.29 7952.96,3944.45 7942.44,3937.15 7932.27,3929.98 7920.16,3921.54 7909.20,3913.89 7895.54,3904.26 7883.58,3895.90 7868.10,3885.10 7855.83,3876.47 7843.04,3867.53 7830.65,3859.02 7820.06,3851.52 7806.37,3842.09 7800.56,3838.04" type="shoulder"/>
        <lane id="589.0_1" index="1" speed="13.89" length="796.88" width="3.66" shape="8457.26,4289.42 8439.93,4277.30 8416.59,4261.04 8392.37,4244.12 8374.67,4231.81 8357.33,4219.72 8339.57,4207.29 8325.05,4197.17 8314.33,4189.71 8303.08,4181.85 8290.58,4173.14 8281.20,4166.56 8272.99,4160.80 8264.48,4154.90 8256.37,4149.14 8246.07,4142.01 8233.01,4132.87 8221.71,4125.03 8209.34,4116.38 8198.17,4108.58 8185.80,4099.94 8179.79,4095.73 8175.20,4092.49 8166.44,4086.38 8153.87,4077.65 8145.41,4071.61 8133.53,4063.42 8120.36,4054.56 8110.27,4047.81 8099.34,4040.58 8093.66,4036.88 8083.17,4030.11 8054.57,4010.79 8040.17,4000.71 8030.74,3994.19 8026.37,3991.09 8019.13,3986.00 8010.59,3980.13 7999.95,3972.57 7988.70,3964.85 7976.53,3956.36 7966.33,3949.28 7955.05,3941.44 7944.53,3934.15 7934.37,3926.99 7922.26,3918.54 7911.31,3910.89 7897.65,3901.26 7885.68,3892.90 7870.20,3882.10 7857.93,3873.48 7845.12,3864.52 7832.74,3856.02 7822.16,3848.52 7808.46,3839.08 7802.65,3835.04"/>
        <lane id="589.0_2" index="2" speed="13.89" length="796.88" width="3.66" shape="8459.36,4286.42 8442.02,4274.30 8418.68,4258.04 8394.46,4241.12 8376.76,4228.80 8359.42,4216.72 8341.66,4204.29 8327.14,4194.17 8316.42,4186.71 8305.17,4178.85 8292.68,4170.14 8283.30,4163.56 8275.08,4157.80 8266.58,4151.91 8258.47,4146.15 8248.16,4139.01 8235.10,4129.87 8223.80,4122.03 8211.43,4113.38 8200.26,4105.58 8187.90,4096.94 8181.89,4092.74 8177.30,4089.50 8168.53,4083.37 8155.98,4074.66 8147.51,4068.62 8135.59,4060.39 8122.40,4051.52 8112.30,4044.76 8101.35,4037.52 8095.65,4033.81 8085.19,4027.06 8056.64,4007.78 8042.26,3997.71 8032.83,3991.19 8028.48,3988.10 8021.22,3982.99 8012.68,3977.13 8002.04,3969.57 7990.78,3961.84 7978.62,3953.35 7968.42,3946.27 7957.14,3938.43 7946.63,3931.15 7936.47,3923.99 7924.35,3915.54 7913.41,3907.90 7899.75,3898.27 7887.77,3889.90 7872.30,3879.10 7860.03,3870.48 7847.21,3861.51 7834.83,3853.02 7824.25,3845.52 7810.54,3836.07 7804.74,3832.03"/>
    </edge>
    <edge id="590.0" from="node_590_start" to="junction_45" priority="-1" type="town" shape="6295.44,2333.50 6285.16,2324.90 6271.11,2313.00 6262.11,2305.33 6252.10,2296.71 6241.70,2287.69 6229.34,2276.69 6221.66,2269.81 6210.86,2260.45 6202.35,2253.21 6194.07,2246.16 6185.76,2239.23 6172.64,2228.61 6164.63,2222.59 6158.87,2218.51 6151.89,2213.83 6149.60,2212.40">
        <lane id="590.0_0" index="0" speed="13.89" length="189.44" width="3.66" shape="6294.27,2334.90 6283.98,2326.30 6269.93,2314.40 6260.92,2306.72 6250.90,2298.09 6240.49,2289.06 6228.12,2278.06 6220.45,2271.18 6209.67,2261.84 6201.16,2254.60 6192.89,2247.56 6184.60,2240.64 6171.51,2230.05 6163.55,2224.07 6157.83,2220.02 6150.88,2215.36 6148.63,2213.95"/>
    </edge>
    <edge id="596.0" from="junction_45" to="node_596_end" priority="-1" type="town" shape="6130.15,2191.66 6129.38,2191.28 6119.00,2186.20 6101.84,2178.14 6087.36,2171.42 6073.79,2165.42 6056.96,2158.17 6042.26,2151.93">
        <lane id="596.0_0" index="0" speed="13.89" length="92.58" width="3.66" shape="6124.51,2199.08 6115.04,2194.45 6097.97,2186.43 6083.58,2179.75 6070.13,2173.81 6053.36,2166.58 6040.33,2161.05"/>
        <lane id="596.0_1" index="1" speed="13.89" length="92.58" width="3.66" shape="6126.12,2195.80 6116.63,2191.15 6099.52,2183.11 6085.09,2176.42 6071.59,2170.45 6054.80,2163.22 6041.76,2157.68"/>
        <lane id="596.0_2" index="2" speed="13.89" length="92.58" width="3.66" shape="6127.73,2192.51 6118.21,2187.85 6101.07,2179.80 6086.60,2173.09 6073.06,2167.10 6056.24,2159.85 6043.19,2154.31"/>
    </edge>
    <edge id="597.0" from="node_597_start" to="junction_44" priority="-1" type="town" shape="9117.14,4718.16 9113.10,4715.59 9102.19,4708.71 9079.89,4694.85 9062.22,4683.75 9046.55,4673.93 9031.07,4664.26 9013.97,4653.63 9001.33,4645.80 8989.11,4638.17 8977.20,4630.82 8965.15,4623.25 8955.99,4617.51 8937.89,4606.21 8921.42,4595.86 8906.63,4586.64 8891.96,4577.53 8877.52,4568.50 8865.79,4561.20 8851.34,4552.35 8835.73,4542.62 8830.10,4539.13 8813.82,4528.99 8798.09,4519.02 8783.20,4509.68 8766.38,4498.85 8746.62,4485.73 8739.50,4480.77 8730.11,4474.22 8722.95,4469.20 8710.81,4460.41 8691.94,4446.90 8675.77,4435.41 8661.02,4425.05 8635.56,4407.36 8628.21,4402.28 8626.92,4401.39">
        <lane id="597.0_0" index="0" disallow="all" speed="13.89" length="582.51" width="3.66" shape="9110.94,4725.06 9108.21,4723.32 9097.33,4716.47 9075.04,4702.61 9057.36,4691.50 9041.70,4681.69 9026.23,4672.03 9009.14,4661.40 8996.50,4653.57 8984.28,4645.94 8972.36,4638.59 8960.29,4631.00 8951.14,4625.27 8933.03,4613.96 8916.56,4603.62 8901.80,4594.41 8887.12,4585.30 8872.68,4576.26 8860.98,4568.99 8846.53,4560.13 8830.89,4550.39 8825.27,4546.90 8808.95,4536.74 8793.21,4526.76 8778.29,4517.40 8761.37,4506.51 8741.47,4493.30 8734.27,4488.28 8724.87,4481.72 8717.64,4476.65 8705.46,4467.84 8686.63,4454.35 8670.49,4442.88 8655.78,4432.55 8630.34,4414.88 8623.01,4409.81 8621.72,4408.92" type="shoulder"/>
        <lane id="597.0_1" index="1" speed="13.89" length="582.51" width="3.66" shape="9112.91,4721.97 9110.17,4720.23 9099.28,4713.36 9076.98,4699.51 9059.30,4688.40 9043.64,4678.58 9028.17,4668.92 9011.07,4658.29 8998.43,4650.46 8986.21,4642.83 8974.30,4635.48 8962.23,4627.90 8953.08,4622.17 8934.98,4610.86 8918.51,4600.51 8903.73,4591.30 8889.06,4582.19 8874.61,4573.16 8862.91,4565.87 8848.45,4557.02 8832.83,4547.28 8827.20,4543.79 8810.90,4533.64 8795.16,4523.66 8780.26,4514.31 8763.38,4503.45 8743.53,4490.27 8736.36,4485.27 8726.96,4478.72 8719.76,4473.67 8707.60,4464.87 8688.75,4451.37 8672.60,4439.89 8657.88,4429.55 8632.43,4411.87 8625.09,4406.80 8623.80,4405.91"/>
        <lane id="597.0_2" index="2" speed="13.89" length="582.51" width="3.66" shape="9114.87,4718.89 9112.12,4717.14 9101.22,4710.26 9078.92,4696.40 9061.25,4685.30 9045.58,4675.48 9030.10,4665.81 9013.00,4655.18 9000.36,4647.35 8988.14,4639.72 8976.23,4632.37 8964.18,4624.80 8955.02,4619.06 8936.92,4607.76 8920.45,4597.41 8905.66,4588.19 8890.99,4579.08 8876.55,4570.05 8864.83,4562.76 8850.38,4553.91 8834.76,4544.17 8829.13,4540.68 8812.85,4530.54 8797.11,4520.57 8782.22,4511.22 8765.38,4500.38 8745.59,4487.24 8738.45,4482.27 8729.06,4475.72 8721.89,4470.69 8709.74,4461.90 8690.88,4448.39 8674.71,4436.90 8659.97,4426.55 8634.52,4408.86 8627.17,4403.79 8625.88,4402.90"/>
    </edge>
    <edge id="598.0" from="node_596_end" to="node_583_start" priority="-1" type="town" shape="6040.00,2158.70 5952.53,2120.34">
        <lane id="598.0_0" index="0" speed="13.89" length="89.49" width="3.66" shape="6037.59,2159.64 5955.64,2123.70"/>
    </edge>