<?xml version='1.0' encoding='utf-8'?>
<edges>
    <edge id="583.0" from="node_583_start" to="junction_107" numLanes="3" speed="13.89" type="town" shape="592307.74,3269162.64 592301.13,3269160.13 592301.13,3269160.13 592283.49,3269153.43 592283.49,3269153.43 592263.08,3269145.55 592263.08,3269145.55 592241.30,3269137.22 592241.30,3269137.22 592215.09,3269127.10 592215.09,3269127.10 592176.24,3269112.32 592176.24,3269112.32 592161.06,3269106.51 592161.06,3269106.51 592151.39,3269102.81 592151.39,3269102.81 592146.52,3269100.92 592146.52,3269100.92 592116.38,3269089.38 592116.38,3269089.38 592093.57,3269080.75 592093.57,3269080.75 592061.49,3269068.38 592061.49,3269068.38 592024.83,3269054.49 592024.83,3269054.49 591989.91,3269041.33 591989.91,3269041.33 591969.60,3269033.48 591969.60,3269033.48 591947.04,3269024.87 591947.04,3269024.87 591935.38,3269020.42 591935.38,3269020.42 591896.47,3269005.54 591896.47,3269005.54 591880.58,3268999.46 591880.58,3268999.46 591852.35,3268988.66 591852.35,3268988.66 591817.74,3268975.53 591817.74,3268975.53 591790.42,3268965.13 591790.42,3268965.13 591765.25,3268955.44 591765.25,3268955.44 591744.29,3268947.40 591744.29,3268947.40 591713.14,3268935.40 591713.14,3268935.40 591671.50,3268919.48 591671.50,3268919.48 591664.04,3268916.63 591664.04,3268916.63 591658.27,3268914.42 591658.27,3268914.42 591646.16,3268909.79 591646.16,3268909.79 591623.12,3268901.02 591623.12,3268901.02 591600.00,3268892.10 591600.00,3268892.10 591565.74,3268879.06 591565.74,3268879.06 591520.44,3268861.85 591520.44,3268861.85 591485.35,3268848.44 591485.35,3268848.44 591451.08,3268835.32 591451.08,3268835.32 591405.31,3268817.75 591405.31,3268817.75 591370.68,3268804.48 591370.68,3268804.48 591336.44,3268791.35 591336.44,3268791.35 591313.44,3268782.50 591313.44,3268782.50 591302.40,3268778.23 591302.40,3268778.23 591290.30,3268773.59 591290.30,3268773.59 591278.73,3268769.21 591278.73,3268769.21 591232.67,3268751.54 591232.67,3268751.54 591187.30,3268734.17 591187.30,3268734.17 591140.83,3268716.47 591140.83,3268716.47 591094.32,3268698.55 591094.32,3268698.55 591048.48,3268680.92 591048.48,3268680.92 591003.05,3268663.55 591003.05,3268663.55 590979.58,3268654.59 590979.58,3268654.59 590944.89,3268641.33 590944.89,3268641.33 590910.44,3268628.29 590910.44,3268628.29 590864.55,3268610.76 590864.55,3268610.76 590796.42,3268584.72 590796.42,3268584.72 590750.39,3268567.13 590750.39,3268567.13 590704.49,3268549.50 590704.49,3268549.50 590646.94,3268527.45 590646.94,3268527.45 590624.06,3268518.77 590624.06,3268518.77 590543.75,3268488.05 590543.75,3268488.05 590509.06,3268474.77 590509.06,3268474.77 590462.89,3268457.09 590462.89,3268457.09 590417.35,3268439.60 590417.35,3268439.60 590371.20,3268421.98 590371.20,3268421.98 590329.37,3268405.95">
        <lane index="0" width="3.66" type="shoulder" disallow="all" />
        <lane index="1" width="3.66" />
        <lane index="2" width="3.66" />
    </edge>
    <edge id="584.0" from="node_584_start" to="node_584_end" numLanes="2" speed="13.89" type="town" shape="594156.47,3270873.97 594151.76,3270870.69 594151.76,3270870.69 594138.50,3270861.37 594138.50,3270861.37 594127.73,3270853.87 594127.73,3270853.87 594112.21,3270842.93 594112.21,3270842.93 594096.15,3270831.73">
        <lane index="0" width="3.66" />
        <lane index="1" width="3.66" />
    </edge>
    <edge id="585.0" from="junction_43" to="node_585_end" numLanes="3" speed="13.89" type="town" shape="593538.99,3270300.69 593535.63,3270296.39 593535.63,3270296.39 593530.34,3270289.54 593530.34,3270289.54 593524.85,3270282.46 593524.85,3270282.46 593518.79,3270274.71 593518.79,3270274.71 593512.14,3270266.14 593512.14,3270266.14 593505.06,3270257.10 593505.06,3270257.10 593496.91,3270246.66 593496.91,3270246.66 593489.79,3270237.50 593489.79,3270237.50 593485.74,3270232.27">
        <lane index="0" width="3.66" />
        <lane index="1" width="3.66" />
        <lane index="2" width="3.66" />
    </edge>
    <edge id="587.0" from="junction_44" to="node_587_end" numLanes="3" speed="13.89" type="town" shape="594918.11,3271403.22 594911.02,3271398.29 594911.02,3271398.29 594900.77,3271391.10 594900.77,3271391.10 594893.55,3271385.98 594893.55,3271385.98 594887.16,3271381.50 594887.16,3271381.50 594885.40,3271380.28">
        <lane index="0" width="3.66" />
        <lane index="1" width="3.66" />
        <lane index="2" width="3.66" />
    </edge>
    <edge id="589.0" from="node_589_start" to="node_584_start" numLanes="3" speed="13.89" type="town" shape="594817.62,3271332.91 594817.08,3271332.54 594817.08,3271332.54 594797.01,3271318.51 594797.01,3271318.51 594773.67,3271302.25 594773.67,3271302.25 594749.45,3271285.33 594749.45,3271285.33 594731.75,3271273.01 594731.75,3271273.01 594714.41,3271260.93 594714.41,3271260.93 594696.65,3271248.50 594696.65,3271248.50 594682.13,3271238.38 594682.13,3271238.38 594671.41,3271230.92 594671.41,3271230.92 594660.16,3271223.06 594660.16,3271223.06 594647.67,3271214.35 594647.67,3271214.35 594638.29,3271207.77 594638.29,3271207.77 594630.07,3271202.01 594630.07,3271202.01 594621.57,3271196.12 594621.57,3271196.12 594613.46,3271190.36 594613.46,3271190.36 594603.15,3271183.22 594603.15,3271183.22 594590.09,3271174.08 594590.09,3271174.08 594578.79,3271166.24 594578.79,3271166.24 594566.42,3271157.59 594566.42,3271157.59 594555.25,3271149.79 594555.25,3271149.79 594542.89,3271141.15 594542.89,3271141.15 594536.88,3271136.95 594536.88,3271136.95 594532.29,3271133.71 594532.29,3271133.71 594523.52,3271127.58 594523.52,3271127.58 594510.97,3271118.87 594510.97,3271118.87 594502.50,3271112.83 594502.50,3271112.83 594490.56,3271104.59 594490.56,3271104.59 594477.36,3271095.71 594477.36,3271095.71 594467.25,3271088.95 594467.25,3271088.95 594456.30,3271081.70 594456.30,3271081.70 594450.58,3271077.98 594450.58,3271077.98 594440.14,3271071.24 594440.14,3271071.24 594411.62,3271051.98 594411.62,3271051.98 594397.25,3271041.92 594397.25,3271041.92 594387.82,3271035.40 594387.82,3271035.40 594383.48,3271032.31 594383.48,3271032.31 594376.20,3271027.20 594376.20,3271027.20 594367.67,3271021.34 594367.67,3271021.34 594357.03,3271013.78 594357.03,3271013.78 594345.76,3271006.05 594345.76,3271006.05 594333.61,3270997.56 594333.61,3270997.56 594323.40,3270990.48 594323.40,3270990.48 594312.12,3270982.64 594312.12,3270982.64 594301.62,3270975.36 594301.62,3270975.36 594291.46,3270968.20 594291.46,3270968.20 594279.34,3270959.75 594279.34,3270959.75 594268.40,3270952.11 594268.40,3270952.11 594254.74,3270942.48 594254.74,3270942.48 594242.76,3270934.11 594242.76,3270934.11 594227.29,3270923.31 594227.29,3270923.31 594215.02,3270914.69 594215.02,3270914.69 594202.19,3270905.72 594202.19,3270905.72 594189.82,3270897.23 594189.82,3270897.23 594179.24,3270889.73 594179.24,3270889.73 594165.52,3270880.28 594165.52,3270880.28 594156.47,3270873.97">
        <lane index="0" width="3.66" type="shoulder" disallow="all" />
        <lane index="1" width="3.66" />
        <lane index="2" width="3.66" />
    </edge>
    <edge id="590.0" from="node_590_start" to="junction_45" numLanes="1" speed="13.89" type="town" shape="592649.38,3269379.21 592639.10,3269370.61 592639.10,3269370.61 592625.05,3269358.71 592625.05,3269358.71 592616.05,3269351.04 592616.05,3269351.04 592606.04,3269342.42 592606.04,3269342.42 592595.64,3269333.40 592595.64,3269333.40 592583.28,3269322.40 592583.28,3269322.40 592575.60,3269315.52 592575.60,3269315.52 592564.80,3269306.16 592564.80,3269306.16 592556.29,3269298.92 592556.29,3269298.92 592548.01,3269291.87 592548.01,3269291.87 592539.70,3269284.94 592539.70,3269284.94 592526.58,3269274.32 592526.58,3269274.32 592518.57,3269268.30 592518.57,3269268.30 592512.81,3269264.22 592512.81,3269264.22 592505.83,3269259.54 592505.83,3269259.54 592503.54,3269258.11">
        <lane index="0" width="3.66" />
    </edge>
    <edge id="596.0" from="junction_45" to="node_596_end" numLanes="3" speed="13.89" type="town" shape="592484.09,3269237.37 592483.32,3269236.99 592483.32,3269236.99 592472.94,3269231.91 592472.94,3269231.91 592455.78,3269223.85 592455.78,3269223.85 592441.30,3269217.13 592441.30,3269217.13 592427.73,3269211.13 592427.73,3269211.13 592410.90,3269203.88 592410.90,3269203.88 592396.20,3269197.64">
        <lane index="0" width="3.66" />
        <lane index="1" width="3.66" />
        <lane index="2" width="3.66" />
    </edge>
    <edge id="597.0" from="node_597_start" to="junction_44" numLanes="3" speed="13.89" type="town" shape="595471.08,3271763.87 595467.04,3271761.30 595467.04,3271761.30 595456.13,3271754.42 595456.13,3271754.42 595433.83,3271740.56 595433.83,3271740.56 595416.16,3271729.46 595416.16,3271729.46 595400.49,3271719.64 595400.49,3271719.64 595385.01,3271709.97 595385.01,3271709.97 595367.91,3271699.34 595367.91,3271699.34 595355.27,3271691.51 595355.27,3271691.51 595343.05,3271683.88 595343.05,3271683.88 595331.14,3271676.53 595331.14,3271676.53 595319.09,3271668.96 595319.09,3271668.96 595309.93,3271663.22 595309.93,3271663.22 595291.83,3271651.92 595291.83,3271651.92 595275.36,3271641.57 595275.36,3271641.57 595260.57,3271632.35 595260.57,3271632.35 595245.90,3271623.24 595245.90,3271623.24 595231.46,3271614.21 595231.46,3271614.21 595219.73,3271606.91 595219.73,3271606.91 595205.28,3271598.06 595205.28,3271598.06 595189.67,3271588.33 595189.67,3271588.33 595184.04,3271584.84 595184.04,3271584.84 595167.76,3271574.70 595167.76,3271574.70 595152.03,3271564.73 595152.03,3271564.73 595137.14,3271555.39 595137.14,3271555.39 595120.32,3271544.56 595120.32,3271544.56 595100.56,3271531.44 595100.56,3271531.44 595093.44,3271526.48 595093.44,3271526.48 595084.05,3271519.93 595084.05,3271519.93 595076.89,3271514.91 595076.89,3271514.91 595064.75,3271506.12 595064.75,3271506.12 595045.88,3271492.61 595045.88,3271492.61 595029.71,3271481.12 595029.71,3271481.12 595014.96,3271470.76 595014.96,3271470.76 594989.50,3271453.07 594989.50,3271453.07 594982.15,3271447.99 594982.15,3271447.99 594980.86,3271447.10">
        <lane index="0" width="3.66" type="shoulder" disallow="all" />
        <lane index="1" width="3.66" />
        <lane index="2" width="3.66" />
    </edge>
    <edge id="598.0" from="node_596_end" to="node_583_start" numLanes="1" speed="13.89" type="town" shape="592393.94,3269204.41 592306.47,3269166.05">
        <lane index="0" width="3.66" />
    </edge>
    <edge id="599.0" from="node_599_start" to="junction_45" numLanes="3" speed="13.89" type="town" shape="593428.02,3270158.13 593425.88,3270155.38 593425.88,3270155.38 593417.70,3270144.94 593417.70,3270144.94 593408.98,3270133.83 593408.98,3270133.83 593399.16,3270121.28 593399.16,3270121.28 593388.94,3270108.27 593388.94,3270108.27 593377.84,3270094.09 593377.84,3270094.09 593369.14,3270083.07 593369.14,3270083.07 593359.20,3270070.42 593359.20,3270070.42 593349.62,3270058.04 593349.62,3270058.04 593338.63,3270044.15 593338.63,3270044.15 593329.25,3270032.05 593329.25,3270032.05 593317.96,3270017.61 593317.96,3270017.61 593307.35,3270004.04 593307.35,3270004.04 593296.41,3269989.95 593296.41,3269989.95 593284.44,3269974.61 593284.44,3269974.61 593271.29,3269957.81 593271.29,3269957.81 593265.47,3269950.33 593265.47,3269950.33 593256.64,3269939.12 593256.64,3269939.12 593248.36,3269928.49 593248.36,3269928.49 593240.33,3269918.23 593240.33,3269918.23 593233.71,3269909.69 593233.71,3269909.69 593227.22,3269901.43 593227.22,3269901.43 593221.81,3269894.55 593221.81,3269894.55 593214.61,3269885.36 593214.61,3269885.36 593206.54,3269875.00 593206.54,3269875.00 593196.61,3269862.44 593196.61,3269862.44 593187.53,3269850.89 593187.53,3269850.89 593174.04,3269833.64 593174.04,3269833.64 593164.21,3269820.92 593164.21,3269820.92 593152.96,3269806.47 593152.96,3269806.47 593139.67,3269789.27 593139.67,3269789.27 593122.66,3269767.40 593122.66,3269767.40 593106.92,3269747.53 593106.92,3269747.53 593092.36,3269729.26 593092.36,3269729.26 593080.43,3269714.49 593080.43,3269714.49 593071.29,3269703.19 593071.29,3269703.19 593066.01,3269696.92 593066.01,3269696.92 593058.53,3269687.82 593058.53,3269687.82 593051.16,3269678.95 593051.16,3269678.95 593044.54,3269671.20 593044.54,3269671.20 593038.45,3269664.06 593038.45,3269664.06 593033.30,3269658.05 593033.30,3269658.05 593029.72,3269653.99 593029.72,3269653.99 593024.80,3269648.39 593024.80,3269648.39 593017.48,3269640.21 593017.48,3269640.21 593011.82,3269633.85 593011.82,3269633.85 593008.41,3269630.12 593008.41,3269630.12 593003.93,3269625.15 593003.93,3269625.15 592998.97,3269619.77 592998.97,3269619.77 592992.14,3269612.49 592992.14,3269612.49 592986.60,3269606.64 592986.60,3269606.64 592977.68,3269597.27 592977.68,3269597.27 592973.69,3269593.15 592973.69,3269593.15 592966.48,3269585.72 592966.48,3269585.72 592960.67,3269579.81 592960.67,3269579.81 592952.84,3269571.91 592952.84,3269571.91 592946.78,3269565.82 592946.78,3269565.82 592935.98,3269555.10 592935.98,3269555.10 592926.94,3269546.29 592926.94,3269546.29 592920.98,3269540.59 592920.98,3269540.59 592914.57,3269534.50 592914.57,3269534.50 592905.98,3269526.41 592905.98,3269526.41 592896.76,3269517.74 592896.76,3269517.74 592887.60,3269509.20 592887.60,3269509.20 592879.19,3269501.45 592879.19,3269501.45 592871.27,3269494.26 592871.27,3269494.26 592860.39,3269484.64 592860.39,3269484.64 592853.62,3269478.87 592853.62,3269478.87 592846.73,3269472.99 592846.73,3269472.99 592838.15,3269465.91 592838.15,3269465.91 592830.22,3269459.40 592830.22,3269459.40 592822.20,3269452.88 592822.20,3269452.88 592813.58,3269446.02 592813.58,3269446.02 592802.19,3269437.06 592802.19,3269437.06 592793.27,3269430.13 592793.27,3269430.13 592783.26,3269422.42 592783.26,3269422.42 592774.85,3269416.03 592774.85,3269416.03 592766.92,3269410.09 592766.92,3269410.09 592754.69,3269401.07 592754.69,3269401.07 592744.79,3269393.93 592744.79,3269393.93 592731.89,3269384.76 592731.89,3269384.76 592720.40,3269376.72 592720.40,3269376.72 592709.61,3269369.21 592709.61,3269369.21 592698.67,3269361.76 592698.67,3269361.76 592688.15,3269354.62 592688.15,3269354.62 592675.85,3269346.44 592675.85,3269346.44 592667.95,3269341.24 592667.95,3269341.24 592663.13,3269338.11 592663.13,3269338.11 592657.94,3269334.80 592657.94,3269334.80 592649.33,3269329.32 592649.33,3269329.32 592641.55,3269324.40 592641.55,3269324.40 592630.93,3269317.81 592630.93,3269317.81 592619.45,3269310.86 592619.45,3269310.86 592610.03,3269305.20 592610.03,3269305.20 592597.43,3269297.79 592597.43,3269297.79 592585.94,3269291.17 592585.94,3269291.17 592562.89,3269278.08 592562.89,3269278.08 592547.85,3269269.77 592547.85,3269269.77 592532.95,3269261.89 592532.95,3269261.89 592518.71,3269254.48 592518.71,3269254.48 592508.17,3269249.18">
        <lane index="0" width="3.66" type="shoulder" disallow="all" />
        <lane index="1" width="3.66" />
        <lane index="2" width="3.66" />
    </edge>
    <edge id="603.0" from="junction_108" to="junction_43" numLanes="3" speed="13.89" type="town" shape="593979.57,3270749.94 593976.38,3270747.66 593976.38,3270747.66 593963.54,3270738.33 593963.54,3270738.33 593949.83,3270728.27 593949.83,3270728.27 593939.57,3270720.51 593939.57,3270720.51 593930.50,3270713.60 593930.50,3270713.60 593918.10,3270703.80 593918.10,3270703.80 593908.81,3270696.33 593908.81,3270696.33 593898.22,3270687.73 593898.22,3270687.73 593887.05,3270678.47 593887.05,3270678.47 593876.40,3270669.52 593876.40,3270669.52 593866.02,3270660.53 593866.02,3270660.53 593853.08,3270649.49 593853.08,3270649.49 593843.07,3270640.64 593843.07,3270640.64 593834.77,3270633.30 593834.77,3270633.30 593825.39,3270624.83 593825.39,3270624.83 593817.49,3270617.60 593817.49,3270617.60 593807.47,3270608.22 593807.47,3270608.22 593793.85,3270595.26 593793.85,3270595.26 593787.84,3270589.51 593787.84,3270589.51 593779.05,3270580.91 593779.05,3270580.91 593769.15,3270571.03 593769.15,3270571.03 593759.96,3270561.80 593759.96,3270561.80 593750.69,3270552.33 593750.69,3270552.33 593743.41,3270544.79 593743.41,3270544.79 593736.04,3270537.14 593736.04,3270537.14 593729.12,3270529.90 593729.12,3270529.90 593724.25,3270524.72 593724.25,3270524.72 593719.76,3270520.03 593719.76,3270520.03 593714.32,3270514.34 593714.32,3270514.34 593708.10,3270507.81 593708.10,3270507.81 593703.57,3270503.05 593703.57,3270503.05 593698.47,3270497.89 593698.47,3270497.89 593691.44,3270490.21 593691.44,3270490.21 593684.44,3270482.42 593684.44,3270482.42 593676.25,3270473.02 593676.25,3270473.02 593669.63,3270465.21 593669.63,3270465.21 593662.38,3270456.62 593662.38,3270456.62 593655.56,3270448.44 593655.56,3270448.44 593649.44,3270440.89 593649.44,3270440.89 593642.55,3270432.33 593642.55,3270432.33 593635.60,3270423.58 593635.60,3270423.58 593627.84,3270413.73 593627.84,3270413.73 593619.92,3270403.77 593619.92,3270403.77 593611.33,3270392.86 593611.33,3270392.86 593602.50,3270381.71 593602.50,3270381.71 593594.20,3270371.20 593594.20,3270371.20 593586.13,3270360.97 593586.13,3270360.97 593580.72,3270354.09 593580.72,3270354.09 593573.42,3270344.80 593573.42,3270344.80 593566.44,3270335.85">
        <lane index="0" width="3.66" type="shoulder" disallow="all" />
        <lane index="1" width="3.66" />
        <lane index="2" width="3.66" />
    </edge>
    <edge id="604.0" from="node_587_end" to="node_589_start" numLanes="2" speed="13.89" type="town" shape="594885.40,3271380.28 594873.20,3271371.76 594873.20,3271371.76 594857.75,3271360.92 594857.75,3271360.92 594837.69,3271346.91 594837.69,3271346.91 594817.62,3271332.91">
        <lane index="0" width="3.66" />
        <lane index="1" width="3.66" />
    </edge>
    <edge id="606.0" from="node_584_end" to="junction_108" numLanes="3" speed="13.89" type="town" shape="594096.15,3270831.73 594093.19,3270829.67 594093.19,3270829.67 594086.84,3270825.22 594086.84,3270825.22 594081.97,3270821.85 594081.97,3270821.85 594076.80,3270818.22 594076.80,3270818.22 594069.98,3270813.46 594069.98,3270813.46 594060.97,3270807.22 594060.97,3270807.22 594052.74,3270801.38 594052.74,3270801.38 594039.79,3270792.29 594039.79,3270792.29 594027.50,3270783.64 594027.50,3270783.64 594013.15,3270773.55">
        <lane index="0" width="3.66" />
        <lane index="1" width="3.66" />
        <lane index="2" width="3.66" />
    </edge>
    <edge id="607.0" from="node_596_end" to="node_583_start" numLanes="2" speed="13.89" type="town" shape="592396.20,3269197.64 592394.90,3269197.08 592394.90,3269197.08 592376.32,3269189.36 592376.32,3269189.36 592359.57,3269182.71 592359.57,3269182.71 592337.51,3269174.01 592337.51,3269174.01 592319.75,3269167.20 592319.75,3269167.20 592307.74,3269162.64">
        <lane index="0" width="3.66" />
        <lane index="1" width="3.66" />
    </edge>
    <edge id="608.0" from="node_608_start" to="junction_44" numLanes="1" speed="13.89" type="town" shape="595100.67,3271600.90 595099.69,3271599.56 595099.69,3271599.56 595077.66,3271569.46 595077.66,3271569.46 595062.61,3271548.48 595062.61,3271548.48 595052.46,3271534.62 595052.46,3271534.62 595045.19,3271525.13 595045.19,3271525.13 595038.33,3271516.79 595038.33,3271516.79 595034.31,3271512.11 595034.31,3271512.11 595026.51,3271503.82 595026.51,3271503.82 595017.46,3271494.75 595017.46,3271494.75 595008.39,3271485.97 595008.39,3271485.97 594997.51,3271475.67 594997.51,3271475.67 594989.84,3271468.65 594989.84,3271468.65 594981.50,3271461.06 594981.50,3271461.06 594975.26,3271455.38">
        <lane index="0" width="3.66" />
    </edge>
    <edge id="611.0" from="node_587_end" to="node_589_start" numLanes="1" speed="13.89" type="town" shape="594881.65,3271385.67 594815.49,3271335.95">
        <lane index="0" width="3.66" />
    </edge>
    <edge id="612.0" from="node_585_end" to="node_599_start" numLanes="2" speed="13.89" type="town" shape="593485.74,3270232.27 593482.59,3270228.20 593482.59,3270228.20 593472.76,3270215.58 593472.76,3270215.58 593465.95,3270206.78 593465.95,3270206.78 593457.89,3270196.37 593457.89,3270196.37 593450.19,3270186.50 593450.19,3270186.50 593444.92,3270179.78 593444.92,3270179.78 593437.53,3270170.29 593437.53,3270170.29 593432.66,3270164.08 593432.66,3270164.08 593428.02,3270158.13">
        <lane index="0" width="3.66" />
        <lane index="1" width="3.66" />
    </edge>
    <edge id="613.0" from="node_613_start" to="node_613_end" numLanes="2" speed="13.89" type="town" shape="595656.87,3271882.20 595652.50,3271879.48 595652.50,3271879.48 595637.51,3271870.07 595637.51,3271870.07 595619.85,3271859.05 595619.85,3271859.05 595604.84,3271849.69 595604.84,3271849.69 595586.06,3271837.86 595586.06,3271837.86 595569.83,3271827.85 595569.83,3271827.85 595550.44,3271815.81 595550.44,3271815.81 595525.58,3271800.18">
        <lane index="0" width="3.66" />
        <lane index="1" width="3.66" />
    </edge>
    <edge id="614.0" from="node_613_end" to="node_597_start" numLanes="2" speed="13.89" type="town" shape="595525.58,3271800.18 595497.56,3271781.43 595497.56,3271781.43 595471.08,3271763.87">
        <lane index="0" width="3.66" />
        <lane index="1" width="3.66" />
    </edge>
    <edge id="616.0" from="node_584_start" to="node_584_end" numLanes="1" speed="13.89" type="town" shape="594154.38,3270876.95 594092.39,3270837.27">
        <lane index="0" width="3.66" />
    </edge>
    <edge id="617.0" from="junction_108" to="node_617_end" numLanes="1" speed="13.89" type="town" shape="593973.68,3270758.03 593970.50,3270756.07 593970.50,3270756.07 593962.76,3270751.36 593962.76,3270751.36 593953.63,3270745.63 593953.63,3270745.63 593938.04,3270736.01 593938.04,3270736.01 593921.35,3270725.65 593921.35,3270725.65 593907.40,3270716.97 593907.40,3270716.97 593889.83,3270706.04 593889.83,3270706.04 593870.60,3270694.12 593870.60,3270694.12 593864.06,3270690.11">
        <lane index="0" width="3.66" />
    </edge>
    <edge id="619.0" from="node_619_start" to="junction_43" numLanes="1" speed="13.89" type="town" shape="593604.89,3270421.29 593603.36,3270413.58 593603.36,3270413.58 593601.75,3270408.31 593601.75,3270408.31 593599.45,3270403.97 593599.45,3270403.97 593590.25,3270388.77 593590.25,3270388.77 593574.92,3270366.00 593574.92,3270366.00 593568.56,3270356.65 593568.56,3270356.65 593558.48,3270341.99">
        <lane index="0" width="3.66" />
    </edge>
    <edge id="621.0" from="node_585_end" to="node_599_start" numLanes="1" speed="13.89" type="town" shape="593479.62,3270236.86 593425.27,3270160.58">
        <lane index="0" width="3.66" />
    </edge>
    <edge id="623.0" from="node_623_start" to="node_623_end" numLanes="1" speed="13.89" type="town" shape="590139.23,3268344.17 590126.21,3268341.22 590126.21,3268341.22 590109.31,3268337.84 590109.31,3268337.84 590093.13,3268335.64 590093.13,3268335.64 590079.12,3268334.05 590079.12,3268334.05 590068.64,3268333.17 590068.64,3268333.17 590061.20,3268333.82 590061.20,3268333.82 590052.06,3268337.26">
        <lane index="0" width="3.66" />
    </edge>
    <edge id="625.0" from="node_625_start" to="junction_109" numLanes="3" speed="13.89" type="town" shape="587981.20,3267549.36 587956.81,3267541.81 587956.81,3267541.81 587908.54,3267526.85 587908.54,3267526.85 587847.18,3267507.87 587847.18,3267507.87 587785.75,3267488.68 587785.75,3267488.68 587737.02,3267473.40 587737.02,3267473.40 587687.69,3267458.06 587687.69,3267458.06 587641.67,3267443.84 587641.67,3267443.84 587595.56,3267429.55 587595.56,3267429.55 587560.21,3267418.63 587560.21,3267418.63 587486.73,3267395.84 587486.73,3267395.84 587444.47,3267382.71 587444.47,3267382.71 587386.75,3267364.87 587386.75,3267364.87 587352.05,3267354.19 587352.05,3267354.19 587305.70,3267339.90 587305.70,3267339.90 587235.92,3267318.36 587235.92,3267318.36 587166.49,3267297.06 587166.49,3267297.06 587119.48,3267282.55 587119.48,3267282.55 587061.14,3267264.55 587061.14,3267264.55 587015.00,3267250.24 587015.00,3267250.24 586980.56,3267239.65 586980.56,3267239.65 586934.33,3267225.24 586934.33,3267225.24 586864.58,3267203.88 586864.58,3267203.88 586783.73,3267178.61 586783.73,3267178.61 586723.01,3267159.71 586723.01,3267159.71 586661.61,3267140.61 586661.61,3267140.61 586625.26,3267129.59 586625.26,3267129.59 586601.12,3267122.12 586601.12,3267122.12 586564.06,3267110.71 586564.06,3267110.71 586528.49,3267099.74 586528.49,3267099.74 586481.20,3267085.19 586481.20,3267085.19 586446.41,3267074.26 586446.41,3267074.26 586400.10,3267059.90 586400.10,3267059.90 586353.94,3267045.71">
        <lane index="0" width="3.66" type="shoulder" disallow="all" />
        <lane index="1" width="3.66" />
        <lane index="2" width="3.66" />
    </edge>
    <edge id="629.0" from="junction_47" to="node_629_end" numLanes="3" speed="13.89" type="town" shape="588222.69,3267623.87 588180.64,3267610.84 588180.64,3267610.84 588133.50,3267596.24 588133.50,3267596.24 588086.12,3267581.77 588086.12,3267581.77 588059.62,3267573.65">
        <lane index="0" width="3.66" />
        <lane index="1" width="3.66" />
        <lane index="2" width="3.66" />
    </edge>
    <edge id="630.0" from="node_630_start" to="node_630_end" numLanes="3" speed="13.89" type="town" shape="590142.85,3268334.87 590130.41,3268330.04 590130.41,3268330.04 590073.19,3268308.01 590073.19,3268308.01 590027.36,3268290.47 590027.36,3268290.47 589970.08,3268268.44 589970.08,3268268.44 589901.57,3268242.23 589901.57,3268242.23 589866.62,3268228.91 589866.62,3268228.91 589855.43,3268224.66 589855.43,3268224.66 589809.40,3268207.21 589809.40,3268207.21 589751.76,3268185.46 589751.76,3268185.46 589671.43,3268154.49 589671.43,3268154.49 589619.05,3268134.29">
        <lane index="0" width="3.66" type="shoulder" disallow="all" />
        <lane index="1" width="3.66" />
        <lane index="2" width="3.66" />
    </edge>
    <edge id="631.0" from="node_629_end" to="node_625_start" numLanes="2" speed="13.89" type="town" shape="588059.62,3267573.65 588039.47,3267567.48 588039.47,3267567.48 588003.88,3267556.39 588003.88,3267556.39 587981.20,3267549.36">
        <lane index="0" width="3.66" />
        <lane index="1" width="3.66" />
    </edge>
    <edge id="632.0" from="node_632_start" to="junction_47" numLanes="3" speed="13.89" type="town" shape="588840.64,3267836.75 588833.27,3267833.93 588833.27,3267833.93 588787.49,3267816.30 588787.49,3267816.30 588752.70,3267802.98 588752.70,3267802.98 588705.96,3267785.26 588705.96,3267785.26 588648.87,3267763.43 588648.87,3267763.43 588603.12,3267745.82 588603.12,3267745.82 588587.62,3267739.93 588587.62,3267739.93 588551.92,3267727.03 588551.92,3267727.03 588533.51,3267720.64 588533.51,3267720.64 588509.47,3267712.49 588509.47,3267712.49 588472.53,3267700.40 588472.53,3267700.40 588423.10,3267685.19 588423.10,3267685.19 588386.33,3267673.92 588386.33,3267673.92 588349.65,3267662.67 588349.65,3267662.67 588312.02,3267651.05 588312.02,3267651.05 588275.09,3267639.87 588275.09,3267639.87 588254.45,3267633.58">
        <lane index="0" width="3.66" type="shoulder" disallow="all" />
        <lane index="1" width="3.66" />
        <lane index="2" width="3.66" />
    </edge>
    <edge id="635.0" from="junction_110" to="node_632_start" numLanes="2" speed="13.89" type="town" shape="588878.35,3267851.16 588840.64,3267836.75">
        <lane index="0" width="3.66" />
        <lane index="1" width="3.66" />
    </edge>
    <edge id="636.0" from="node_636_start" to="node_636_end" numLanes="1" speed="13.89" type="town" shape="588836.88,3267846.10 588825.77,3267842.82 588825.77,3267842.82 588815.55,3267839.85 588815.55,3267839.85 588811.50,3267838.77 588811.50,3267838.77 588807.26,3267837.66 588807.26,3267837.66 588803.60,3267836.96 588803.60,3267836.96 588797.63,3267835.65 588797.63,3267835.65 588793.08,3267834.99 588793.08,3267834.99 588789.93,3267834.90 588789.93,3267834.90 588787.96,3267834.97">
        <lane index="0" width="3.66" />
    </edge>
    <edge id="637.0" from="node_637_start" to="node_637_end" numLanes="1" speed="13.89" type="town" shape="589676.45,3268180.23 589666.18,3268173.59 589666.18,3268173.59 589656.80,3268167.87 589656.80,3268167.87 589648.53,3268162.76 589648.53,3268162.76 589638.45,3268156.79 589638.45,3268156.79 589630.09,3268151.88 589630.09,3268151.88 589615.74,3268143.78">
        <lane index="0" width="3.66" />
    </edge>
    <edge id="638.0" from="j_merge_end_48" to="junction_110" numLanes="3" speed="13.89" type="town" shape="589398.78,3268050.04 589373.55,3268040.41 589373.55,3268040.41 589316.37,3268018.51 589316.37,3268018.51 589270.21,3268000.92 589270.21,3268000.92 589224.34,3267983.33 589224.34,3267983.33 589178.40,3267965.77 589178.40,3267965.77 589120.53,3267943.66 589120.53,3267943.66 589051.53,3267917.27 589051.53,3267917.27 589007.18,3267900.38">
        <lane index="0" width="3.66" type="shoulder" disallow="all" />
        <lane index="1" width="3.66" />
        <lane index="2" width="3.66" />
    </edge>
    <edge id="640.0" from="junction_107" to="node_630_start" numLanes="2" speed="13.89" type="town" shape="590164.76,3268343.18 590142.85,3268334.87">
        <lane index="0" width="3.66" />
        <lane index="1" width="3.66" />
    </edge>
    <edge id="641.0" from="node_630_end" to="j_merge_start_48" numLanes="2" speed="13.89" type="town" shape="589619.05,3268134.29 589598.54,3268126.49">
        <lane index="0" width="3.66" />
        <lane index="1" width="3.66" />
    </edge>
    <edge id="642.0" from="node_637_end" to="j_merge_start_48" numLanes="1" speed="13.89" type="town" shape="589615.74,3268143.78 589596.24,3268133.04">
        <lane index="0" width="3.66" />
    </edge>
    <edge id="644.0" from="junction_107" to="node_623_start" numLanes="1" speed="13.89" type="town" shape="590162.33,3268349.78 590139.23,3268344.17">
        <lane index="0" width="3.66" />
    </edge>
    <edge id="645.0" from="junction_110" to="node_636_start" numLanes="1" speed="13.89" type="town" shape="588875.85,3267857.70 588836.88,3267846.10">
        <lane index="0" width="3.66" />
    </edge>