<?xml version='1.0' encoding='utf-8'?>
<nodes>
    <node id="node_583_start" x="592307.7415128292" y="3269162.6381248366" type="priority" />
    <node id="node_584_start" x="594156.472891675" y="3270873.974341803" type="priority" />
    <node id="node_584_end" x="594096.1506015585" y="3270831.730197182" type="priority" />
    <node id="node_585_end" x="593485.7410849675" y="3270232.2717927718" type="priority" />
    <node id="node_587_end" x="594885.3985890504" y="3271380.2751737926" type="priority" />
    <node id="node_589_start" x="594817.6201552122" y="3271332.911193456" type="priority" />
    <node id="node_590_start" x="592649.3755868464" y="3269379.2055355418" type="priority" />
    <node id="node_596_end" x="592396.2029462545" y="3269197.6361137205" type="priority" />
    <node id="node_597_start" x="595471.0815254318" y="3271763.866354277" type="priority" />
    <node id="node_598_start" x="592393.9416781281" y="3269204.4147065184" type="priority" />
    <node id="node_598_end" x="592306.4657415441" y="3269166.0457021343" type="priority" />
    <node id="node_599_start" x="593428.01960464" y="3270158.131166667" type="priority" />
    <node id="node_608_start" x="595100.6675417403" y="3271600.9024503096" type="priority" />
    <node id="node_611_start" x="594881.6496724595" y="3271385.6748891245" type="priority" />
    <node id="node_611_end" x="594815.4915850023" y="3271335.947654512" type="priority" />
    <node id="node_613_start" x="595656.8667841356" y="3271882.2016251446" type="priority" />
    <node id="node_613_end" x="595525.5823253315" y="3271800.18025781" type="priority" />
    <node id="node_616_start" x="594154.3767079973" y="3270876.954068311" type="priority" />
    <node id="node_616_end" x="594092.3877235873" y="3270837.2724944255" type="priority" />
    <node id="node_617_end" x="593864.0633189351" y="3270690.1104314025" type="priority" />
    <node id="node_619_start" x="593604.8859783186" y="3270421.2885019234" type="priority" />
    <node id="node_621_start" x="593479.6160556291" y="3270236.862155189" type="priority" />
    <node id="node_621_end" x="593425.2662657379" y="3270160.5789061277" type="priority" />
    <node id="node_623_start" x="590139.2339145176" y="3268344.1714202333" type="priority" />
    <node id="node_623_end" x="590052.0641147103" y="3268337.261630344" type="priority" />
    <node id="node_625_start" x="587981.1961606075" y="3267549.3642537454" type="priority" />
    <node id="node_629_end" x="588059.6183160231" y="3267573.648509034" type="priority" />
    <node id="node_630_start" x="590142.85423113" y="3268334.8725628355" type="priority" />
    <node id="node_630_end" x="589619.050748012" y="3268134.2914154422" type="priority" />
    <node id="node_632_start" x="588840.6383334615" y="3267836.7457611454" type="priority" />
    <node id="node_636_start" x="588836.8751982346" y="3267846.1031594155" type="priority" />
    <node id="node_636_end" x="588787.9592754078" y="3267834.968141514" type="priority" />
    <node id="node_637_start" x="589676.4506503553" y="3268180.225070108" type="priority" />
    <node id="node_637_end" x="589615.7391637188" y="3268143.778598058" type="priority" />
    <node id="node_646_start" x="588327.829092907" y="3267677.501084049" type="priority" />
    <node id="node_648_start" x="588057.4690220578" y="3267580.7740814574" type="priority" />
    <node id="node_648_end" x="587980.0129164013" y="3267552.7795805084" type="priority" />
    <node id="junction_63" x="0.0" y="0.0" type="priority" />
    <node id="junction_1" x="0.0" y="0.0" type="priority" />
    <node id="junction_70" x="0.0" y="0.0" type="priority" />
    <node id="junction_2" x="0.0" y="0.0" type="priority" />
    <node id="junction_6" x="0.0" y="0.0" type="priority" />
    <node id="junction_9" x="0.0" y="0.0" type="priority" />
    <node id="junction_64" x="0.0" y="0.0" type="priority" />
    <node id="junction_10" x="0.0" y="0.0" type="priority" />
    <node id="junction_73" x="0.0" y="0.0" type="priority" />
    <node id="junction_11" x="0.0" y="0.0" type="priority" />
    <node id="junction_74" x="0.0" y="0.0" type="priority" />
    <node id="junction_77" x="0.0" y="0.0" type="priority" />
    <node id="junction_75" x="0.0" y="0.0" type="priority" />
    <node id="junction_3" x="0.0" y="0.0" type="priority" />
    <node id="junction_16" x="0.0" y="0.0" type="priority" />
    <node id="junction_78" x="0.0" y="0.0" type="priority" />
    <node id="junction_79" x="0.0" y="0.0" type="priority" />
    <node id="junction_17" x="0.0" y="0.0" type="priority" />
    <node id="junction_19" x="0.0" y="0.0" type="priority" />
    <node id="junction_18" x="0.0" y="0.0" type="priority" />
    <node id="junction_76" x="0.0" y="0.0" type="priority" />
    <node id="junction_12" x="0.0" y="0.0" type="priority" />
    <node id="junction_14" x="0.0" y="0.0" type="priority" />
    <node id="junction_84" x="0.0" y="0.0" type="priority" />
    <node id="junction_65" x="0.0" y="0.0" type="priority" />
    <node id="junction_85" x="0.0" y="0.0" type="priority" />
    <node id="junction_55" x="0.0" y="0.0" type="priority" />
    <node id="junction_86" x="0.0" y="0.0" type="priority" />
    <node id="junction_81" x="0.0" y="0.0" type="priority" />
    <node id="junction_21" x="0.0" y="0.0" type="priority" />
    <node id="junction_82" x="0.0" y="0.0" type="priority" />
    <node id="junction_22" x="0.0" y="0.0" type="priority" />
    <node id="junction_80" x="0.0" y="0.0" type="priority" />
    <node id="junction_20" x="0.0" y="0.0" type="priority" />
    <node id="junction_4" x="0.0" y="0.0" type="priority" />
    <node id="junction_23" x="0.0" y="0.0" type="priority" />
    <node id="junction_83" x="0.0" y="0.0" type="priority" />
    <node id="junction_66" x="0.0" y="0.0" type="priority" />
    <node id="junction_24" x="0.0" y="0.0" type="priority" />
    <node id="junction_88" x="0.0" y="0.0" type="priority" />
    <node id="junction_26" x="0.0" y="0.0" type="priority" />
    <node id="junction_27" x="0.0" y="0.0" type="priority" />
    <node id="junction_28" x="0.0" y="0.0" type="priority" />
    <node id="junction_91" x="0.0" y="0.0" type="priority" />
    <node id="junction_29" x="0.0" y="0.0" type="priority" />
    <node id="junction_92" x="0.0" y="0.0" type="priority" />
    <node id="junction_30" x="0.0" y="0.0" type="priority" />
    <node id="junction_31" x="0.0" y="0.0" type="priority" />
    <node id="junction_32" x="0.0" y="0.0" type="priority" />
    <node id="junction_96" x="0.0" y="0.0" type="priority" />
    <node id="junction_33" x="0.0" y="0.0" type="priority" />
    <node id="junction_98" x="0.0" y="0.0" type="priority" />
    <node id="junction_99" x="0.0" y="0.0" type="priority" />
    <node id="junction_100" x="0.0" y="0.0" type="priority" />
    <node id="junction_37" x="0.0" y="0.0" type="priority" />
    <node id="junction_36" x="0.0" y="0.0" type="priority" />
    <node id="junction_35" x="0.0" y="0.0" type="priority" />
    <node id="junction_97" x="0.0" y="0.0" type="priority" />
    <node id="junction_87" x="0.0" y="0.0" type="priority" />
    <node id="junction_89" x="0.0" y="0.0" type="priority" />
    <node id="junction_90" x="0.0" y="0.0" type="priority" />
    <node id="junction_93" x="0.0" y="0.0" type="priority" />
    <node id="junction_94" x="0.0" y="0.0" type="priority" />
    <node id="junction_95" x="0.0" y="0.0" type="priority" />
    <node id="junction_34" x="0.0" y="0.0" type="priority" />
    <node id="junction_38" x="0.0" y="0.0" type="priority" />
    <node id="junction_39" x="0.0" y="0.0" type="priority" />
    <node id="junction_40" x="0.0" y="0.0" type="priority" />
    <node id="junction_102" x="0.0" y="0.0" type="priority" />
    <node id="junction_103" x="0.0" y="0.0" type="priority" />
    <node id="junction_106" x="0.0" y="0.0" type="priority" />
    <node id="junction_42" x="0.0" y="0.0" type="priority" />
    <node id="junction_104" x="0.0" y="0.0" type="priority" />
    <node id="junction_41" x="0.0" y="0.0" type="priority" />
    <node id="junction_46" x="0.0" y="0.0" type="priority" />
    <node id="junction_68" x="0.0" y="0.0" type="priority" />
    <node id="junction_49" x="0.0" y="0.0" type="priority" />
    <node id="junction_111" x="0.0" y="0.0" type="priority" />
    <node id="junction_112" x="0.0" y="0.0" type="priority" />
    <node id="junction_50" x="0.0" y="0.0" type="priority" />
    <node id="junction_113" x="0.0" y="0.0" type="priority" />
    <node id="junction_52" x="0.0" y="0.0" type="priority" />
    <node id="junction_51" x="0.0" y="0.0" type="priority" />
    <node id="junction_53" x="0.0" y="0.0" type="priority" />
    <node id="junction_116" x="0.0" y="0.0" type="priority" />
    <node id="junction_115" x="0.0" y="0.0" type="priority" />
    <node id="junction_54" x="0.0" y="0.0" type="priority" />
    <node id="junction_117" x="0.0" y="0.0" type="priority" />
    <node id="junction_101" x="0.0" y="0.0" type="priority" />
    <node id="junction_105" x="0.0" y="0.0" type="priority" />
    <node id="junction_114" x="0.0" y="0.0" type="priority" />
    <node id="junction_13" x="0.0" y="0.0" type="priority" />
    <node id="junction_7" x="0.0" y="0.0" type="priority" />
    <node id="junction_15" x="0.0" y="0.0" type="priority" />
    <node id="junction_119" x="0.0" y="0.0" type="priority" />
    <node id="junction_120" x="0.0" y="0.0" type="priority" />
    <node id="junction_56" x="0.0" y="0.0" type="priority" />
    <node id="junction_118" x="0.0" y="0.0" type="priority" />
    <node id="junction_121" x="0.0" y="0.0" type="priority" />
    <node id="junction_61" x="0.0" y="0.0" type="priority" />
    <node id="junction_122" x="0.0" y="0.0" type="priority" />
    <node id="junction_8" x="0.0" y="0.0" type="priority" />
    <node id="junction_62" x="0.0" y="0.0" type="priority" />
    <node id="junction_71" x="0.0" y="0.0" type="priority" />
    <node id="junction_57" x="0.0" y="0.0" type="priority" />
    <node id="junction_5" x="0.0" y="0.0" type="priority" />
    <node id="junction_123" x="0.0" y="0.0" type="priority" />
    <node id="junction_25" x="0.0" y="0.0" type="priority" />
    <node id="junction_124" x="0.0" y="0.0" type="priority" />
    <node id="junction_58" x="0.0" y="0.0" type="priority" />
    <node id="junction_59" x="0.0" y="0.0" type="priority" />
    <node id="junction_125" x="0.0" y="0.0" type="priority" />
    <node id="junction_126" x="0.0" y="0.0" type="priority" />
    <node id="junction_60" x="0.0" y="0.0" type="priority" />
    <node id="junction_72" x="0.0" y="0.0" type="priority" />
    <node id="junction_127" x="0.0" y="0.0" type="priority" />
    <node id="junction_109" x="586353.9406891245" y="3267045.7136586057" type="priority" />
    <node id="junction_110" x="588920.4570954706" y="3267869.746840015" type="priority" />
    <node id="junction_108" x="593988.8002427976" y="3270760.506244035" type="priority" />
    <node id="junction_43" x="593554.6360225693" y="3270326.1742525673" type="priority" />
    <node id="j_merge_start_48" x="589598.5423861968" y="3268126.494906625" type="priority" />
    <node id="j_merge_end_48" x="589398.7786969928" y="3268050.0380972866" type="priority" />
    <node id="junction_47" x="588242.8467933765" y="3267633.517077832" type="priority" />
    <node id="junction_107" x="590218.8186967555" y="3268366.302341034" type="priority" />
    <node id="junction_45" x="592498.6001842621" y="3269248.2176479157" type="priority" />
    <node id="junction_44" x="594958.0766269085" y="3271435.2325368" type="priority" />
</nodes>