<?xml version='1.0' encoding='utf-8'?>
<connections>
    <connection from="583.0" to="644.0" fromLane="1" toLane="0" />
    <connection from="583.0" to="640.0" fromLane="2" toLane="1" />
    <connection from="583.0" to="640.0" fromLane="1" toLane="0" />
    <connection from="606.0" to="603.0" fromLane="2" toLane="2" />
    <connection from="606.0" to="603.0" fromLane="1" toLane="1" />
    <connection from="606.0" to="617.0" fromLane="0" toLane="0" />
    <connection from="638.0" to="645.0" fromLane="1" toLane="0" />
    <connection from="638.0" to="635.0" fromLane="2" toLane="1" />
    <connection from="638.0" to="635.0" fromLane="1" toLane="0" />
    <connection from="603.0" to="585.0" fromLane="1" toLane="1" />
    <connection from="603.0" to="585.0" fromLane="2" toLane="2" />
    <connection from="597.0" to="587.0" fromLane="2" toLane="2" />
    <connection from="597.0" to="587.0" fromLane="1" toLane="1" />
    <connection from="599.0" to="596.0" fromLane="1" toLane="1" />
    <connection from="599.0" to="596.0" fromLane="2" toLane="2" />
    <connection from="632.0" to="629.0" fromLane="1" toLane="1" />
    <connection from="632.0" to="629.0" fromLane="2" toLane="2" />
    <connection from="642.0" to="merge_zone_48" fromLane="0" toLane="0" />
    <connection from="merge_zone_48" to="638.0" fromLane="0" toLane="2" dir="r" state="m" />
    <connection from="641.0" to="merge_zone_48" fromLane="0" toLane="1" />
    <connection from="641.0" to="merge_zone_48" fromLane="1" toLane="2" />
    <connection from="merge_zone_48" to="638.0" fromLane="1" toLane="1" />
    <connection from="merge_zone_48" to="638.0" fromLane="2" toLane="2" />
</connections>