<?xml version="1.0" encoding="UTF-8"?>

<!-- generated on 2025-10-19 17:33:41 by Eclipse SUMO netconvert Version 1.23.1
<netconvertConfiguration xmlns:xsi="http://www.w3.org/2001/XMLSchema-instance" xsi:noNamespaceSchemaLocation="http://sumo.dlr.de/xsd/netconvertConfiguration.xsd">

    <input>
        <node-files value="/home/sdai/harry/TeraSim/jupiter/wb/jupiter_wb_tiles/tile_0026/tile_0026.nod.xml"/>
        <edge-files value="/home/sdai/harry/TeraSim/jupiter/wb/jupiter_wb_tiles/tile_0026/tile_0026.edg.xml"/>
        <connection-files value="/home/sdai/harry/TeraSim/jupiter/wb/jupiter_wb_tiles/tile_0026/tile_0026.con.xml"/>
    </input>

    <output>
        <output-file value="/home/sdai/harry/TeraSim/jupiter/wb/jupiter_wb_tiles/tile_0026/tile_0026.net.xml"/>
        <output.street-names value="true"/>
        <output.original-names value="true"/>
    </output>

    <processing>
        <geometry.remove value="false"/>
        <geometry.min-dist value="0.5"/>
        <edges.join value="false"/>
    </processing>

    <junctions>
        <no-internal-links value="false"/>
        <no-turnarounds value="true"/>
        <junctions.join value="true"/>
        <junctions.join-dist value="10"/>
        <junctions.corner-detail value="5"/>
        <junctions.internal-link-detail value="5"/>
        <junctions.limit-turn-speed value="5.5"/>
        <rectangular-lane-cut value="true"/>
        <check-lane-foes.all value="true"/>
    </junctions>

</netconvertConfiguration>
-->

<net version="1.20" junctionCornerDetail="5" junctionLinkDetail="5" rectangularLaneCut="true" limitTurnSpeed="5.50" checkLaneFoesAll="1" xmlns:xsi="http://www.w3.org/2001/XMLSchema-instance" xsi:noNamespaceSchemaLocation="http://sumo.dlr.de/xsd/net_file.xsd">

    <location netOffset="-598483.77,-3273950.48" convBoundary="0.00,0.00,5395.80,952.80" origBoundary="0.00,0.00,603879.57,3274903.28" projParameter="!"/>

    <edge id=":junction_102_0" function="internal">
        <lane id=":junction_102_0_0" index="0" speed="13.89" length="16.10" width="3.66" shape="3680.08,929.69 3674.90,929.83 3670.96,930.35 3667.60,931.04 3664.16,931.74"/>
    </edge>
    <edge id=":junction_102_1" function="internal">
        <lane id=":junction_102_1_0" index="0" speed="13.89" length="16.74" width="3.66" shape="3680.14,926.03 3663.43,925.79"/>
        <lane id=":junction_102_1_1" index="1" speed="13.89" length="16.74" width="3.66" shape="3680.21,922.37 3663.45,922.13"/>
    </edge>
    <edge id=":junction_104_0" function="internal">
        <lane id=":junction_104_0_0" index="0" speed="13.89" length="29.08" width="3.66" shape="2195.29,916.67 2185.32,916.79 2177.18,917.12 2170.84,917.53 2166.25,917.92"/>
    </edge>
    <edge id=":junction_104_1" function="internal">
        <lane id=":junction_104_1_0" index="0" speed="13.89" length="29.96" width="3.66" shape="2195.29,913.01 2165.29,911.55"/>
        <lane id=":junction_104_1_1" index="1" speed="13.89" length="29.96" width="3.66" shape="2195.30,909.35 2165.46,907.90"/>
    </edge>
    <edge id=":junction_106_0" function="internal">
        <lane id=":junction_106_0_0" index="0" disallow="all" speed="13.89" length="70.19" width="3.66" shape="1500.60,905.00 1430.60,901.42"/>
        <lane id=":junction_106_0_1" index="1" speed="13.89" length="70.19" width="3.66" shape="1500.93,901.36 1430.72,897.76"/>
    </edge>
    <edge id=":junction_106_2" function="internal">
        <lane id=":junction_106_2_0" index="0" speed="13.89" length="70.23" width="3.66" shape="1500.93,901.36 1431.04,893.74"/>
        <lane id=":junction_106_2_1" index="1" speed="13.89" length="70.23" width="3.66" shape="1501.26,897.71 1431.51,890.11"/>
    </edge>
    <edge id=":junction_41_0" function="internal">
        <lane id=":junction_41_0_0" index="0" speed="13.89" length="61.21" width="3.66" shape="2716.51,927.79 2707.02,926.56 2689.84,924.48 2670.78,922.47 2655.64,921.49"/>
    </edge>
    <edge id=":junction_41_1" function="internal">
        <lane id=":junction_41_1_0" index="0" speed="13.89" length="60.90" width="3.66" shape="2716.65,918.32 2655.70,917.83"/>
        <lane id=":junction_41_1_1" index="1" speed="13.89" length="60.90" width="3.66" shape="2716.60,914.66 2655.75,914.17"/>
    </edge>
    <edge id=":node_528_start_0" function="internal">
        <lane id=":node_528_start_0_0" index="0" speed="13.89" length="4.87" width="3.66" shape="3734.29,926.63 3731.02,930.24"/>
        <lane id=":node_528_start_0_1" index="1" speed="13.89" length="4.87" width="3.66" shape="3734.34,922.97 3731.08,926.58"/>
    </edge>
    <edge id=":node_528_start_2" function="internal">
        <lane id=":node_528_start_2_0" index="0" speed="13.89" length="7.06" width="3.66" shape="3734.12,929.31 3731.13,922.92"/>
    </edge>
    <edge id=":node_533_end_0" function="internal">
        <lane id=":node_533_end_0_0" index="0" speed="13.89" length="7.71" width="3.66" shape="3781.64,927.19 3773.93,927.01"/>
    </edge>
    <edge id=":node_533_end_1" function="internal">
        <lane id=":node_533_end_1_0" index="0" speed="13.89" length="8.08" width="3.66" shape="3781.64,927.19 3773.56,927.10"/>
        <lane id=":node_533_end_1_1" index="1" speed="13.89" length="8.08" width="3.66" shape="3781.67,923.53 3773.60,923.44"/>
    </edge>
    <edge id=":node_533_start_0" function="internal">
        <lane id=":node_533_start_0_0" index="0" speed="13.89" length="0.30" width="3.66" shape="3860.12,928.08 3859.82,928.08"/>
        <lane id=":node_533_start_0_1" index="1" speed="13.89" length="0.30" width="3.66" shape="3860.16,924.42 3859.86,924.42"/>
    </edge>
    <edge id=":node_554_end_0" function="internal">
        <lane id=":node_554_end_0_0" index="0" speed="13.89" length="0.30" width="3.66" shape="186.58,151.24 186.35,151.06"/>
        <lane id=":node_554_end_0_1" index="1" speed="13.89" length="0.30" width="3.66" shape="188.89,148.40 188.65,148.21"/>
    </edge>
    <edge id=":node_554_start_0" function="internal">
        <lane id=":node_554_start_0_0" index="0" speed="13.89" length="3.00" width="3.66" shape="286.54,232.68 284.25,230.73"/>
        <lane id=":node_554_start_0_1" index="1" speed="13.89" length="3.00" width="3.66" shape="288.91,229.88 286.62,227.95"/>
    </edge>
    <edge id=":node_561_start_0" function="internal">
        <lane id=":node_561_start_0_0" index="0" speed="13.89" length="0.30" width="3.66" shape="318.24,258.96 318.01,258.77"/>
        <lane id=":node_561_start_0_1" index="1" speed="13.89" length="0.30" width="3.66" shape="320.53,256.09 320.29,255.91"/>
    </edge>
    <edge id=":node_564_end_0" function="internal">
        <lane id=":node_564_end_0_0" index="0" speed="13.89" length="0.30" width="3.66" shape="1371.04,884.06 1370.74,884.00"/>
        <lane id=":node_564_end_0_1" index="1" speed="13.89" length="0.30" width="3.66" shape="1371.69,880.46 1371.40,880.40"/>
    </edge>
    <edge id=":node_566_end_0" function="internal">
        <lane id=":node_566_end_0_0" index="0" speed="13.89" length="0.30" width="3.66" shape="1698.40,905.10 1698.09,905.10"/>
        <lane id=":node_566_end_0_1" index="1" speed="13.89" length="0.30" width="3.66" shape="1698.42,901.44 1698.13,901.44"/>
    </edge>
    <edge id=":node_568_end_0" function="internal">
        <lane id=":node_568_end_0_0" index="0" speed="13.89" length="0.30" width="3.66" shape="1639.76,904.99 1639.46,904.99"/>
        <lane id=":node_568_end_0_1" index="1" speed="13.89" length="0.30" width="3.66" shape="1639.74,901.33 1639.44,901.33"/>
    </edge>

    <edge id="526.0" from="junction_102" to="junction_41" priority="-1" type="town" shape="3663.46,920.30 3651.38,920.23 3640.66,920.17 3622.22,920.12 3596.90,919.90 3572.75,919.65 3549.38,919.43 3527.30,919.32 3488.20,918.74 3462.92,918.33 3437.46,918.09 3412.41,917.94 3386.81,917.65 3367.31,917.44 3348.10,917.21 3329.27,917.00 3316.46,916.87 3309.64,916.79 3296.77,916.76 3271.02,916.32 3257.27,916.22 3243.33,916.13 3217.72,915.82 3193.15,915.69 3179.96,915.47 3167.98,915.32 3142.92,914.97 3129.71,914.88 3089.94,914.37 3077.45,914.29 3050.88,914.06 3036.44,913.87 2991.60,913.30 2975.65,913.23 2949.63,912.92 2931.78,912.74 2914.12,912.42 2875.53,912.06 2859.19,912.08 2842.45,911.78 2832.53,911.68 2814.32,911.44 2809.71,911.60 2797.85,911.56 2786.06,911.73 2773.80,911.92 2761.46,912.10 2749.78,912.27 2738.07,912.52 2716.57,912.83">
        <lane id="526.0_0" index="0" disallow="all" speed="13.89" length="946.85" width="3.66" shape="3663.41,929.45 3651.33,929.38 3640.63,929.32 3622.17,929.27 3596.81,929.05 3572.66,928.80 3549.31,928.58 3527.21,928.47 3488.06,927.89 3462.80,927.48 3437.39,927.24 3412.33,927.09 3386.71,926.80 3367.21,926.59 3347.99,926.36 3329.17,926.15 3316.36,926.02 3309.58,925.94 3296.68,925.91 3270.91,925.47 3257.21,925.37 3243.25,925.28 3217.64,924.97 3193.05,924.84 3179.83,924.62 3167.86,924.47 3142.81,924.12 3129.62,924.03 3089.84,923.52 3077.38,923.44 3050.79,923.21 3036.32,923.02 2991.52,922.45 2975.58,922.38 2949.53,922.07 2931.65,921.89 2913.99,921.57 2875.49,921.21 2859.11,921.23 2842.31,920.93 2832.42,920.83 2814.42,920.59 2809.85,920.75 2797.90,920.71 2786.20,920.88 2773.94,921.07 2761.59,921.25 2749.94,921.42 2738.23,921.67 2716.70,921.98" type="shoulder"/>
        <lane id="526.0_1" index="1" speed="13.89" length="946.85" width="3.66" shape="3663.43,925.79 3651.35,925.72 3640.64,925.66 3622.19,925.61 3596.85,925.39 3572.70,925.14 3549.34,924.92 3527.25,924.81 3488.12,924.23 3462.85,923.82 3437.42,923.58 3412.36,923.43 3386.75,923.14 3367.25,922.93 3348.04,922.70 3329.21,922.49 3316.40,922.36 3309.60,922.28 3296.72,922.25 3270.95,921.81 3257.23,921.71 3243.28,921.62 3217.67,921.31 3193.09,921.18 3179.88,920.96 3167.91,920.81 3142.86,920.46 3129.66,920.37 3089.88,919.86 3077.41,919.78 3050.82,919.55 3036.37,919.36 2991.55,918.79 2975.61,918.72 2949.57,918.41 2931.70,918.23 2914.04,917.91 2875.51,917.55 2859.14,917.57 2842.37,917.27 2832.46,917.17 2814.38,916.93 2809.80,917.09 2797.88,917.05 2786.14,917.22 2773.88,917.41 2761.54,917.59 2749.88,917.76 2738.17,918.01 2716.65,918.32"/>
        <lane id="526.0_2" index="2" speed="13.89" length="946.85" width="3.66" shape="3663.45,922.13 3651.37,922.06 3640.65,922.00 3622.21,921.95 3596.88,921.73 3572.73,921.48 3549.37,921.26 3527.28,921.15 3488.17,920.57 3462.90,920.16 3437.45,919.92 3412.39,919.77 3386.79,919.48 3367.29,919.27 3348.08,919.04 3329.25,918.83 3316.44,918.70 3309.63,918.62 3296.75,918.59 3271.00,918.15 3257.26,918.05 3243.31,917.96 3217.70,917.65 3193.13,917.52 3179.93,917.30 3167.96,917.15 3142.90,916.80 3129.69,916.71 3089.92,916.20 3077.44,916.12 3050.86,915.89 3036.42,915.70 2991.58,915.13 2975.64,915.06 2949.61,914.75 2931.75,914.57 2914.09,914.25 2875.52,913.89 2859.17,913.91 2842.42,913.61 2832.51,913.51 2814.34,913.27 2809.74,913.43 2797.86,913.39 2786.09,913.56 2773.83,913.75 2761.49,913.93 2749.81,914.10 2738.10,914.35 2716.60,914.66"/>
    </edge>
    <edge id="528.0" from="node_528_start" to="junction_102" priority="-1" type="town" shape="3732.59,921.11 3710.53,920.79 3685.40,920.63 3680.24,920.54">
        <lane id="528.0_0" index="0" speed="13.89" length="50.94" width="3.66" shape="3731.02,930.24 3710.43,929.94 3685.32,929.78 3680.08,929.69"/>
        <lane id="528.0_1" index="1" speed="13.89" length="50.94" width="3.66" shape="3731.08,926.58 3710.47,926.28 3685.35,926.12 3680.14,926.03"/>
        <lane id="528.0_2" index="2" speed="13.89" length="50.94" width="3.66" shape="3731.13,922.92 3710.51,922.62 3685.38,922.46 3680.21,922.37"/>
    </edge>
    <edge id="533.0" from="node_533_start" to="node_533_end" priority="-1" type="town" shape="3860.03,922.59 3849.24,922.46 3836.44,922.26 3804.77,921.88 3779.05,921.68 3777.78,921.66">
        <lane id="533.0_0" index="0" disallow="all" speed="13.89" length="78.18" width="3.66" shape="3859.77,931.74 3849.11,931.61 3836.31,931.41 3804.68,931.03 3781.61,930.85" type="shoulder"/>
        <lane id="533.0_1" index="1" speed="13.89" length="78.18" width="3.66" shape="3859.82,928.08 3849.16,927.95 3836.36,927.75 3804.72,927.37 3781.64,927.19"/>
        <lane id="533.0_2" index="2" speed="13.89" length="78.18" width="3.66" shape="3859.86,924.42 3849.21,924.29 3836.41,924.09 3804.75,923.71 3781.67,923.53"/>
    </edge>
    <edge id="537.0" from="junction_102" to="node_537_end" priority="-1" type="town" shape="3663.85,929.94 3660.08,930.59 3654.85,931.31 3651.68,931.71 3648.30,932.13 3642.30,933.01 3637.22,933.73 3627.74,935.07 3619.03,936.30 3610.71,937.44 3602.55,938.67 3598.41,939.24 3591.77,940.23 3583.70,941.35 3574.62,942.65 3562.97,944.23 3505.02,950.57 3491.03,951.39 3478.84,952.10 3468.01,952.61 3462.02,952.80">
        <lane id="537.0_0" index="0" speed="13.89" length="203.50" width="3.66" shape="3664.16,931.74 3660.36,932.40 3655.09,933.12 3651.91,933.53 3648.55,933.94 3642.56,934.82 3637.48,935.54 3628.00,936.88 3619.28,938.11 3610.97,939.25 3602.81,940.48 3598.67,941.05 3592.03,942.04 3583.96,943.16 3574.87,944.46 3563.19,946.05 3505.17,952.39 3491.14,953.22 3478.94,953.93 3468.09,954.44 3462.08,954.63"/>
    </edge>
    <edge id="539.0" from="node_533_end" to="node_528_start" priority="-1" type="town" shape="3777.77,924.95 3732.60,927.57">
        <lane id="539.0_0" index="0" speed="13.89" length="39.88" width="3.66" shape="3773.93,927.01 3734.12,929.31"/>
    </edge>
    <edge id="540.0" from="node_540_start" to="node_533_start" priority="-1" type="town" shape="5395.80,938.35 5389.91,938.29 5372.17,938.10 5358.00,937.94 5348.26,937.81 5339.40,937.73 5326.96,937.59 5313.02,937.42 5295.59,937.24 5280.07,937.07 5267.54,936.90 5251.42,936.75 5240.53,936.62 5227.05,936.51 5213.77,936.37 5185.71,936.05 5173.02,935.91 5160.66,935.80 5144.94,935.62 5126.89,935.45 5116.38,935.31 5104.69,935.19 5092.09,935.04 5080.30,934.97 5070.33,934.86 5058.49,934.69 5046.45,934.58 5039.13,934.54 5023.26,934.37 5012.20,934.23 4997.56,934.07 4984.17,933.93 4973.56,933.84 4961.06,933.69 4948.99,933.51 4938.16,933.41 4930.34,933.30 4917.47,933.16 4903.05,932.97 4888.11,932.84 4874.52,932.72 4857.44,932.52 4837.33,932.32 4818.16,932.09 4805.60,931.99 4787.15,931.82 4774.86,931.66 4755.42,931.46 4739.22,931.31 4723.06,931.13 4712.00,931.00 4699.72,930.89 4683.15,930.67 4669.60,930.54 4658.33,930.41 4645.73,930.26 4633.16,930.14 4616.52,929.92 4599.40,929.73 4581.29,929.56 4564.82,929.39 4544.40,929.10 4535.10,929.02 4523.88,928.91 4514.94,928.80 4506.96,928.71 4495.78,928.57 4478.84,928.45 4462.99,928.27 4448.11,928.12 4437.53,928.05 4426.34,927.93 4418.40,927.81 4405.27,927.70 4386.31,927.51 4377.15,927.42 4363.56,927.26 4352.20,927.14 4342.66,927.04 4315.85,926.83 4290.97,926.49 4284.08,926.44 4275.04,926.39 4264.68,926.26 4254.85,926.15 4245.20,926.05 4235.66,925.95 4222.96,925.82 4212.18,925.74 4203.53,925.63 4195.27,925.54 4189.78,925.48 4181.08,925.40 4172.45,925.30 4165.25,925.22 4153.44,925.11 4142.95,924.97 4137.54,924.96 4131.58,924.88 4124.64,924.80 4116.94,924.73 4104.93,924.56 4100.94,924.54 4094.05,924.45 4085.60,924.38 4078.73,924.30 4070.40,924.22 4059.32,924.10 4050.66,924.01 4035.22,923.83 4021.25,923.71 4010.36,923.56 4001.74,923.51 3989.99,923.40 3981.25,923.28 3972.50,923.25 3966.75,923.19 3960.96,923.18 3955.35,923.21 3944.46,923.34 3918.92,923.12 3905.46,923.09 3893.76,922.93 3874.61,922.75 3860.03,922.59">
        <lane id="540.0_0" index="0" disallow="all" speed="13.89" length="1535.72" width="3.66" shape="5395.71,947.50 5389.81,947.44 5372.07,947.25 5357.89,947.09 5348.16,946.96 5339.31,946.88 5326.85,946.74 5312.92,946.57 5295.49,946.39 5279.96,946.22 5267.44,946.05 5251.33,945.90 5240.44,945.77 5226.96,945.66 5213.67,945.52 5185.61,945.20 5172.93,945.06 5160.57,944.95 5144.85,944.77 5126.79,944.60 5116.27,944.46 5104.59,944.34 5092.01,944.19 5080.22,944.12 5070.21,944.01 5058.38,943.84 5046.38,943.73 5039.05,943.69 5023.15,943.52 5012.09,943.38 4997.46,943.22 4984.08,943.08 4973.46,942.99 4960.94,942.84 4948.88,942.66 4938.06,942.56 4930.23,942.45 4917.36,942.31 4902.95,942.12 4888.03,941.99 4874.42,941.87 4857.34,941.67 4837.23,941.47 4818.06,941.24 4805.52,941.14 4787.05,940.97 4774.76,940.81 4755.33,940.61 4739.13,940.46 4722.96,940.28 4711.91,940.15 4699.62,940.04 4683.04,939.82 4669.50,939.69 4658.22,939.56 4645.63,939.41 4633.05,939.29 4616.41,939.07 4599.31,938.88 4581.20,938.71 4564.71,938.54 4544.29,938.25 4535.02,938.17 4523.78,938.06 4514.83,937.95 4506.85,937.86 4495.70,937.72 4478.76,937.60 4462.89,937.42 4448.03,937.27 4437.45,937.20 4426.23,937.08 4418.30,936.96 4405.18,936.85 4386.22,936.66 4377.05,936.57 4363.46,936.41 4352.10,936.29 4342.58,936.19 4315.75,935.98 4290.86,935.64 4284.02,935.59 4274.96,935.54 4264.57,935.41 4254.75,935.30 4245.10,935.20 4235.57,935.10 4222.88,934.97 4212.09,934.89 4203.42,934.78 4195.17,934.69 4189.69,934.63 4180.98,934.55 4172.35,934.45 4165.16,934.37 4153.34,934.26 4142.86,934.12 4137.47,934.11 4131.47,934.03 4124.55,933.95 4116.83,933.88 4104.82,933.71 4100.85,933.69 4093.95,933.60 4085.51,933.53 4078.63,933.45 4070.31,933.37 4059.22,933.25 4050.56,933.16 4035.13,932.98 4021.15,932.86 4010.27,932.71 4001.67,932.66 3989.89,932.55 3981.17,932.43 3972.44,932.40 3966.69,932.34 3960.98,932.33 3955.44,932.36 3944.48,932.49 3918.86,932.27 3905.39,932.24 3893.66,932.08 3874.52,931.90 3860.08,931.74" type="shoulder"/>
        <lane id="540.0_1" index="1" speed="13.89" length="1535.72" width="3.66" shape="5395.75,943.84 5389.85,943.78 5372.11,943.59 5357.93,943.43 5348.20,943.30 5339.34,943.22 5326.90,943.08 5312.96,942.91 5295.53,942.73 5280.00,942.56 5267.48,942.39 5251.36,942.24 5240.48,942.11 5227.00,942.00 5213.71,941.86 5185.65,941.54 5172.97,941.40 5160.60,941.29 5144.88,941.11 5126.83,940.94 5116.32,940.80 5104.63,940.68 5092.04,940.53 5080.25,940.46 5070.26,940.35 5058.43,940.18 5046.41,940.07 5039.08,940.03 5023.20,939.86 5012.14,939.72 4997.50,939.56 4984.12,939.42 4973.50,939.33 4960.99,939.18 4948.92,939.00 4938.10,938.90 4930.27,938.79 4917.40,938.65 4902.99,938.46 4888.06,938.33 4874.46,938.21 4857.38,938.01 4837.27,937.81 4818.10,937.58 4805.55,937.48 4787.09,937.31 4774.80,937.15 4755.37,936.95 4739.16,936.80 4723.00,936.62 4711.94,936.49 4699.66,936.38 4683.09,936.16 4669.54,936.03 4658.27,935.90 4645.67,935.75 4633.10,935.63 4616.45,935.41 4599.34,935.22 4581.24,935.05 4564.75,934.88 4544.33,934.59 4535.05,934.51 4523.82,934.40 4514.88,934.29 4506.89,934.20 4495.73,934.06 4478.79,933.94 4462.93,933.76 4448.06,933.61 4437.48,933.54 4426.27,933.42 4418.34,933.30 4405.22,933.19 4386.26,933.00 4377.09,932.91 4363.50,932.75 4352.14,932.63 4342.61,932.53 4315.79,932.32 4290.90,931.98 4284.05,931.93 4274.99,931.88 4264.61,931.75 4254.79,931.64 4245.14,931.54 4235.60,931.44 4222.91,931.31 4212.13,931.23 4203.47,931.12 4195.21,931.03 4189.73,930.97 4181.02,930.89 4172.39,930.79 4165.20,930.71 4153.38,930.60 4142.90,930.46 4137.50,930.45 4131.51,930.37 4124.58,930.29 4116.87,930.22 4104.86,930.05 4100.88,930.03 4093.99,929.94 4085.55,929.87 4078.67,929.79 4070.34,929.71 4059.26,929.59 4050.60,929.50 4035.16,929.32 4021.19,929.20 4010.30,929.05 4001.70,929.00 3989.93,928.89 3981.20,928.77 3972.47,928.74 3966.72,928.68 3960.97,928.67 3955.40,928.70 3944.47,928.83 3918.88,928.61 3905.42,928.58 3893.70,928.42 3874.55,928.24 3860.12,928.08"/>
        <lane id="540.0_2" index="2" speed="13.89" length="1535.72" width="3.66" shape="5395.78,940.18 5389.89,940.12 5372.15,939.93 5357.98,939.77 5348.24,939.64 5339.38,939.56 5326.94,939.42 5313.00,939.25 5295.57,939.07 5280.05,938.90 5267.52,938.73 5251.40,938.58 5240.51,938.45 5227.03,938.34 5213.75,938.20 5185.69,937.88 5173.00,937.74 5160.64,937.63 5144.92,937.45 5126.87,937.28 5116.36,937.14 5104.67,937.02 5092.07,936.87 5080.28,936.80 5070.31,936.69 5058.47,936.52 5046.44,936.41 5039.11,936.37 5023.24,936.20 5012.18,936.06 4997.54,935.90 4984.15,935.76 4973.54,935.67 4961.04,935.52 4948.97,935.34 4938.14,935.24 4930.32,935.13 4917.45,934.99 4903.03,934.80 4888.09,934.67 4874.50,934.55 4857.42,934.35 4837.31,934.15 4818.14,933.92 4805.58,933.82 4787.13,933.65 4774.84,933.49 4755.40,933.29 4739.20,933.14 4723.04,932.96 4711.98,932.83 4699.70,932.72 4683.13,932.50 4669.58,932.37 4658.31,932.24 4645.71,932.09 4633.14,931.97 4616.50,931.75 4599.38,931.56 4581.27,931.39 4564.80,931.22 4544.38,930.93 4535.08,930.85 4523.86,930.74 4514.92,930.63 4506.94,930.54 4495.76,930.40 4478.82,930.28 4462.97,930.10 4448.09,929.95 4437.51,929.88 4426.32,929.76 4418.38,929.64 4405.25,929.53 4386.29,929.34 4377.13,929.25 4363.54,929.09 4352.18,928.97 4342.64,928.87 4315.83,928.66 4290.95,928.32 4284.07,928.27 4275.02,928.22 4264.66,928.09 4254.83,927.98 4245.18,927.88 4235.64,927.78 4222.94,927.65 4212.16,927.57 4203.51,927.46 4195.25,927.37 4189.76,927.31 4181.06,927.23 4172.43,927.13 4165.23,927.05 4153.42,926.94 4142.93,926.80 4137.53,926.79 4131.56,926.71 4124.62,926.63 4116.92,926.56 4104.91,926.39 4100.92,926.37 4094.03,926.28 4085.58,926.21 4078.71,926.13 4070.38,926.05 4059.30,925.93 4050.64,925.84 4035.20,925.66 4021.23,925.54 4010.34,925.39 4001.73,925.34 3989.97,925.23 3981.23,925.11 3972.49,925.08 3966.74,925.02 3960.96,925.01 3955.37,925.04 3944.46,925.17 3918.91,924.95 3905.45,924.92 3893.74,924.76 3874.59,924.58 3860.16,924.42"/>
    </edge>
    <edge id="549.0" from="node_533_end" to="node_528_start" priority="-1" type="town" shape="3777.78,921.66 3742.27,921.25 3732.59,921.11">
        <lane id="549.0_0" index="0" speed="13.89" length="39.26" width="3.66" shape="3773.56,927.10 3742.20,926.74 3734.29,926.63"/>
        <lane id="549.0_1" index="1" speed="13.89" length="39.26" width="3.66" shape="3773.60,923.44 3742.25,923.08 3734.34,922.97"/>
    </edge>
    <edge id="553.0" from="junction_41" to="junction_104" priority="-1" type="town" shape="2655.78,912.34 2642.31,912.14 2623.68,911.96 2613.29,911.88 2604.56,911.80 2596.91,911.73 2586.14,911.54 2572.83,911.43 2564.39,911.30 2554.16,911.15 2541.12,911.06 2522.00,910.91 2509.76,910.71 2495.32,910.55 2484.89,910.44 2474.13,910.37 2461.99,910.28 2452.42,910.20 2434.40,909.99 2413.81,909.78 2400.33,909.65 2390.19,909.52 2383.52,909.40 2376.19,909.33 2364.34,909.27 2346.54,909.00 2327.67,908.84 2314.15,908.70 2300.74,908.50 2290.87,908.42 2265.98,908.24 2250.63,908.07 2239.60,907.88 2228.13,907.70 2209.61,907.47 2202.33,907.53 2195.30,907.52">
        <lane id="553.0_0" index="0" speed="13.89" length="460.44" width="3.66" shape="2655.64,921.49 2642.20,921.29 2623.60,921.11 2613.21,921.03 2604.48,920.95 2596.78,920.88 2586.02,920.69 2572.73,920.58 2564.25,920.45 2554.06,920.30 2541.05,920.21 2521.89,920.06 2509.64,919.86 2495.22,919.70 2484.81,919.59 2474.07,919.52 2461.92,919.43 2452.32,919.35 2434.30,919.14 2413.72,918.93 2400.23,918.80 2390.05,918.67 2383.40,918.55 2376.13,918.48 2364.25,918.42 2346.43,918.15 2327.59,917.99 2314.03,917.85 2300.63,917.65 2290.80,917.57 2265.90,917.39 2250.51,917.22 2239.45,917.03 2228.00,916.85 2209.59,916.62 2202.36,916.68 2195.29,916.67"/>
        <lane id="553.0_1" index="1" speed="13.89" length="460.44" width="3.66" shape="2655.70,917.83 2642.25,917.63 2623.63,917.45 2613.24,917.37 2604.51,917.29 2596.83,917.22 2586.07,917.03 2572.77,916.92 2564.31,916.79 2554.10,916.64 2541.08,916.55 2521.93,916.40 2509.69,916.20 2495.26,916.04 2484.84,915.93 2474.09,915.86 2461.95,915.77 2452.36,915.69 2434.34,915.48 2413.76,915.27 2400.27,915.14 2390.11,915.01 2383.45,914.89 2376.15,914.82 2364.28,914.76 2346.48,914.49 2327.62,914.33 2314.08,914.19 2300.67,913.99 2290.83,913.91 2265.93,913.73 2250.56,913.56 2239.51,913.37 2228.05,913.19 2209.60,912.96 2202.35,913.02 2195.29,913.01"/>
        <lane id="553.0_2" index="2" speed="13.89" length="460.44" width="3.66" shape="2655.75,914.17 2642.29,913.97 2623.66,913.79 2613.27,913.71 2604.54,913.63 2596.88,913.56 2586.12,913.37 2572.81,913.26 2564.36,913.13 2554.14,912.98 2541.11,912.89 2521.98,912.74 2509.74,912.54 2495.30,912.38 2484.87,912.27 2474.12,912.20 2461.98,912.11 2452.40,912.03 2434.38,911.82 2413.79,911.61 2400.31,911.48 2390.16,911.35 2383.50,911.23 2376.18,911.16 2364.32,911.10 2346.52,910.83 2327.65,910.67 2314.13,910.53 2300.72,910.33 2290.86,910.25 2265.96,910.07 2250.61,909.90 2239.57,909.71 2228.10,909.53 2209.61,909.30 2202.34,909.36 2195.30,909.35"/>
    </edge>
    <edge id="554.0" from="node_554_start" to="node_554_end" priority="-1" type="town" shape="288.95,227.52 282.22,221.80 274.32,215.11 262.10,204.98 250.62,195.68 240.89,187.92 227.90,177.47 219.69,170.83 207.92,161.41 197.88,153.33 189.92,146.88">
        <lane id="554.0_0" index="0" disallow="all" speed="13.89" length="125.94" width="3.66" shape="281.88,233.52 276.30,228.78 268.44,222.12 256.30,212.06 244.89,202.81 235.17,195.06 222.16,184.59 213.96,177.96 202.19,168.55 192.13,160.45 184.28,154.09" type="shoulder"/>
        <lane id="554.0_1" index="1" speed="13.89" length="125.94" width="3.66" shape="284.25,230.73 278.67,225.99 270.79,219.32 258.62,209.23 247.18,199.96 237.46,192.20 224.45,181.74 216.25,175.11 204.48,165.69 194.43,157.60 186.58,151.24"/>
        <lane id="554.0_2" index="2" speed="13.89" length="125.94" width="3.66" shape="286.62,227.95 281.04,223.20 273.14,216.51 260.94,206.40 249.47,197.11 239.75,189.35 226.75,178.89 218.54,172.26 206.77,162.84 196.73,154.75 188.89,148.40"/>
    </edge>
    <edge id="561.0" from="node_561_start" to="node_554_start" priority="-1" type="town" shape="321.55,254.57 316.99,250.93 305.25,241.23 294.24,232.00 288.95,227.52">
        <lane id="561.0_0" index="0" speed="13.89" length="40.82" width="3.66" shape="318.01,258.77 313.53,255.19 301.74,245.45 290.71,236.20 286.54,232.68"/>
        <lane id="561.0_1" index="1" speed="13.89" length="40.82" width="3.66" shape="320.29,255.91 315.84,252.35 304.08,242.64 293.06,233.40 288.91,229.88"/>
    </edge>
    <edge id="564.0" from="junction_106" to="node_564_end" priority="-1" type="town" shape="1438.58,889.17 1430.16,888.09 1417.40,886.26 1404.51,884.32 1392.91,882.35 1378.48,879.83 1371.87,878.63">
        <lane id="564.0_0" index="0" speed="13.89" length="60.69" width="3.66" shape="1431.04,893.74 1429.42,893.53 1416.60,891.69 1403.64,889.74 1391.98,887.76 1377.52,885.24 1371.04,884.06"/>
        <lane id="564.0_1" index="1" speed="13.89" length="60.69" width="3.66" shape="1431.51,890.11 1429.91,889.90 1417.13,888.07 1404.22,886.13 1392.60,884.15 1378.16,881.63 1371.69,880.46"/>
    </edge>
    <edge id="566.0" from="junction_104" to="node_566_end" priority="-1" type="town" shape="2165.54,906.07 2158.53,905.75 2140.06,904.90 2119.79,904.35 2095.79,903.94 2074.67,903.59 2064.02,903.42 2056.32,903.33 2044.90,903.18 2025.11,903.08 2013.04,902.94 1994.28,902.74 1986.68,902.61 1977.90,902.54 1968.70,902.42 1962.11,902.35 1954.92,902.26 1943.95,902.10 1936.81,902.04 1929.89,902.01 1917.93,901.91 1900.37,901.75 1891.30,901.67 1875.28,901.51 1857.88,901.37 1840.64,901.11 1825.65,900.94 1802.05,900.69 1781.34,900.47 1761.94,900.32 1742.79,900.21 1727.08,899.95 1708.80,899.69 1698.29,899.61">
        <lane id="566.0_0" index="0" disallow="all" speed="13.89" length="466.96" width="3.66" shape="2165.12,915.21 2158.11,914.89 2139.73,914.04 2119.59,913.50 2095.64,913.09 2074.52,912.74 2063.89,912.57 2056.21,912.48 2044.82,912.33 2025.04,912.23 2012.94,912.09 1994.17,911.89 1986.57,911.76 1977.80,911.69 1968.59,911.57 1962.00,911.50 1954.79,911.41 1943.84,911.25 1936.75,911.19 1929.83,911.16 1917.85,911.06 1900.29,910.90 1891.21,910.82 1875.20,910.66 1857.77,910.52 1840.52,910.26 1825.55,910.09 1801.95,909.84 1781.26,909.62 1761.88,909.47 1742.69,909.36 1726.94,909.10 1708.69,908.84 1698.37,908.76" type="shoulder"/>
        <lane id="566.0_1" index="1" speed="13.89" length="466.96" width="3.66" shape="2165.29,911.55 2158.28,911.23 2139.86,910.39 2119.67,909.84 2095.70,909.43 2074.58,909.08 2063.94,908.91 2056.25,908.82 2044.85,908.67 2025.07,908.57 2012.98,908.43 1994.21,908.23 1986.61,908.10 1977.84,908.03 1968.63,907.91 1962.05,907.84 1954.84,907.75 1943.88,907.59 1936.77,907.53 1929.85,907.50 1917.88,907.40 1900.32,907.24 1891.25,907.16 1875.23,907.00 1857.82,906.86 1840.57,906.60 1825.59,906.43 1801.99,906.18 1781.29,905.96 1761.90,905.81 1742.73,905.70 1727.00,905.44 1708.74,905.18 1698.40,905.10"/>
        <lane id="566.0_2" index="2" speed="13.89" length="466.96" width="3.66" shape="2165.46,907.90 2158.45,907.58 2139.99,906.73 2119.75,906.18 2095.76,905.77 2074.64,905.42 2063.99,905.25 2056.30,905.16 2044.88,905.01 2025.10,904.91 2013.02,904.77 1994.26,904.57 1986.66,904.44 1977.88,904.37 1968.68,904.25 1962.09,904.18 1954.89,904.09 1943.93,903.93 1936.80,903.87 1929.88,903.84 1917.91,903.74 1900.35,903.58 1891.28,903.50 1875.26,903.34 1857.86,903.20 1840.62,902.94 1825.63,902.77 1802.03,902.52 1781.32,902.30 1761.93,902.15 1742.77,902.04 1727.05,901.78 1708.78,901.52 1698.42,901.44"/>
    </edge>
    <edge id="567.0" from="junction_104" to="node_567_end" priority="-1" type="town" shape="2166.08,916.10 2159.32,916.72 2133.64,919.08 2116.16,920.74 2096.89,922.59 2084.25,923.80 2069.93,925.10 2044.33,927.43 2022.92,929.32 1993.43,931.92">
        <lane id="567.0_0" index="0" speed="13.89" length="173.38" width="3.66" shape="2166.25,917.92 2159.49,918.54 2133.81,920.90 2116.33,922.56 2097.06,924.41 2084.42,925.62 2070.10,926.92 2044.49,929.25 2023.08,931.14 1993.59,933.74"/>
    </edge>
    <edge id="568.0" from="node_566_end" to="node_568_end" priority="-1" type="town" shape="1698.29,899.61 1689.48,899.53 1670.65,899.47 1652.56,899.42 1639.58,899.50">
        <lane id="568.0_0" index="0" disallow="all" speed="13.89" length="58.33" width="3.66" shape="1698.06,908.76 1689.42,908.68 1670.62,908.62 1652.58,908.57 1639.79,908.65" type="shoulder"/>
        <lane id="568.0_1" index="1" speed="13.89" length="58.33" width="3.66" shape="1698.09,905.10 1689.45,905.02 1670.63,904.96 1652.57,904.91 1639.76,904.99"/>