<?xml version='1.0' encoding='utf-8'?>
<connections>
    <connection from="528.0" to="526.0" fromLane="1" toLane="1" />
    <connection from="528.0" to="526.0" fromLane="2" toLane="2" />
    <connection from="528.0" to="537.0" fromLane="0" toLane="0" />
    <connection from="553.0" to="566.0" fromLane="1" toLane="1" />
    <connection from="553.0" to="566.0" fromLane="2" toLane="2" />
    <connection from="553.0" to="567.0" fromLane="0" toLane="0" />
    <connection from="577.0" to="569.0" fromLane="0" toLane="0" />
    <connection from="577.0" to="569.0" fromLane="1" toLane="1" />
    <connection from="577.0" to="564.0" fromLane="2" toLane="1" />
    <connection from="577.0" to="564.0" fromLane="1" toLane="0" />
    <connection from="526.0" to="553.0" fromLane="1" toLane="1" />
    <connection from="526.0" to="553.0" fromLane="2" toLane="2" />
</connections>