<?xml version='1.0' encoding='utf-8'?>
<edges>
    <edge id="526.0" from="junction_102" to="junction_41" numLanes="3" speed="13.89" type="town" shape="602147.23,3274870.78 602135.15,3274870.71 602135.15,3274870.71 602124.43,3274870.65 602124.43,3274870.65 602105.99,3274870.60 602105.99,3274870.60 602080.67,3274870.38 602080.67,3274870.38 602056.52,3274870.13 602056.52,3274870.13 602033.15,3274869.91 602033.15,3274869.91 602011.07,3274869.80 602011.07,3274869.80 601971.97,3274869.22 601971.97,3274869.22 601946.69,3274868.81 601946.69,3274868.81 601921.23,3274868.57 601921.23,3274868.57 601896.18,3274868.42 601896.18,3274868.42 601870.58,3274868.13 601870.58,3274868.13 601851.08,3274867.92 601851.08,3274867.92 601831.87,3274867.69 601831.87,3274867.69 601813.04,3274867.48 601813.04,3274867.48 601800.23,3274867.35 601800.23,3274867.35 601793.41,3274867.27 601793.41,3274867.27 601780.54,3274867.24 601780.54,3274867.24 601754.79,3274866.80 601754.79,3274866.80 601741.04,3274866.70 601741.04,3274866.70 601727.10,3274866.61 601727.10,3274866.61 601701.49,3274866.30 601701.49,3274866.30 601676.92,3274866.17 601676.92,3274866.17 601663.73,3274865.95 601663.73,3274865.95 601651.75,3274865.80 601651.75,3274865.80 601626.69,3274865.45 601626.69,3274865.45 601613.48,3274865.36 601613.48,3274865.36 601573.71,3274864.85 601573.71,3274864.85 601561.22,3274864.77 601561.22,3274864.77 601534.65,3274864.54 601534.65,3274864.54 601520.21,3274864.35 601520.21,3274864.35 601475.37,3274863.78 601475.37,3274863.78 601459.42,3274863.71 601459.42,3274863.71 601433.40,3274863.40 601433.40,3274863.40 601415.55,3274863.22 601415.55,3274863.22 601397.89,3274862.90 601397.89,3274862.90 601359.30,3274862.54 601359.30,3274862.54 601342.96,3274862.56 601342.96,3274862.56 601326.22,3274862.26 601326.22,3274862.26 601316.30,3274862.16 601316.30,3274862.16 601298.09,3274861.92 601298.09,3274861.92 601293.48,3274862.08 601293.48,3274862.08 601281.62,3274862.04 601281.62,3274862.04 601269.83,3274862.21 601269.83,3274862.21 601257.57,3274862.40 601257.57,3274862.40 601245.23,3274862.58 601245.23,3274862.58 601233.55,3274862.75 601233.55,3274862.75 601221.84,3274863.00 601221.84,3274863.00 601200.34,3274863.31">
        <lane index="0" width="3.66" type="shoulder" disallow="all" />
        <lane index="1" width="3.66" />
        <lane index="2" width="3.66" />
    </edge>
    <edge id="528.0" from="node_528_start" to="junction_102" numLanes="3" speed="13.89" type="town" shape="602216.36,3274871.59 602194.30,3274871.27 602194.30,3274871.27 602169.17,3274871.11 602169.17,3274871.11 602164.01,3274871.02">
        <lane index="0" width="3.66" />
        <lane index="1" width="3.66" />
        <lane index="2" width="3.66" />
    </edge>
    <edge id="533.0" from="node_533_start" to="node_533_end" numLanes="3" speed="13.89" type="town" shape="602343.80,3274873.07 602333.01,3274872.94 602333.01,3274872.94 602320.21,3274872.74 602320.21,3274872.74 602288.54,3274872.36 602288.54,3274872.36 602262.82,3274872.16 602262.82,3274872.16 602261.55,3274872.14">
        <lane index="0" width="3.66" type="shoulder" disallow="all" />
        <lane index="1" width="3.66" />
        <lane index="2" width="3.66" />
    </edge>
    <edge id="537.0" from="junction_102" to="node_537_end" numLanes="1" speed="13.89" type="town" shape="602147.62,3274880.42 602143.85,3274881.07 602143.85,3274881.07 602138.62,3274881.79 602138.62,3274881.79 602135.45,3274882.19 602135.45,3274882.19 602132.07,3274882.61 602132.07,3274882.61 602126.07,3274883.49 602126.07,3274883.49 602120.99,3274884.21 602120.99,3274884.21 602111.51,3274885.55 602111.51,3274885.55 602102.80,3274886.78 602102.80,3274886.78 602094.48,3274887.92 602094.48,3274887.92 602086.32,3274889.15 602086.32,3274889.15 602082.18,3274889.72 602082.18,3274889.72 602075.54,3274890.71 602075.54,3274890.71 602067.47,3274891.83 602067.47,3274891.83 602058.39,3274893.13 602058.39,3274893.13 602046.74,3274894.71 602046.74,3274894.71 601988.79,3274901.05 601988.79,3274901.05 601974.80,3274901.87 601974.80,3274901.87 601962.61,3274902.58 601962.61,3274902.58 601951.78,3274903.09 601951.78,3274903.09 601945.79,3274903.28">
        <lane index="0" width="3.66" />
    </edge>
    <edge id="539.0" from="node_533_end" to="node_528_start" numLanes="1" speed="13.89" type="town" shape="602261.54,3274875.43 602216.37,3274878.05">
        <lane index="0" width="3.66" />
    </edge>
    <edge id="540.0" from="node_540_start" to="node_533_start" numLanes="3" speed="13.89" type="town" shape="603879.57,3274888.83 603873.68,3274888.77 603873.68,3274888.77 603855.94,3274888.58 603855.94,3274888.58 603841.77,3274888.42 603841.77,3274888.42 603832.03,3274888.29 603832.03,3274888.29 603823.17,3274888.21 603823.17,3274888.21 603810.73,3274888.07 603810.73,3274888.07 603796.79,3274887.90 603796.79,3274887.90 603779.36,3274887.72 603779.36,3274887.72 603763.84,3274887.55 603763.84,3274887.55 603751.31,3274887.38 603751.31,3274887.38 603735.19,3274887.23 603735.19,3274887.23 603724.30,3274887.10 603724.30,3274887.10 603710.82,3274886.99 603710.82,3274886.99 603697.54,3274886.85 603697.54,3274886.85 603669.48,3274886.53 603669.48,3274886.53 603656.79,3274886.39 603656.79,3274886.39 603644.43,3274886.28 603644.43,3274886.28 603628.71,3274886.10 603628.71,3274886.10 603610.66,3274885.93 603610.66,3274885.93 603600.15,3274885.79 603600.15,3274885.79 603588.46,3274885.67 603588.46,3274885.67 603575.86,3274885.52 603575.86,3274885.52 603564.07,3274885.45 603564.07,3274885.45 603554.10,3274885.34 603554.10,3274885.34 603542.26,3274885.17 603542.26,3274885.17 603530.22,3274885.06 603530.22,3274885.06 603522.90,3274885.02 603522.90,3274885.02 603507.03,3274884.85 603507.03,3274884.85 603495.97,3274884.71 603495.97,3274884.71 603481.33,3274884.55 603481.33,3274884.55 603467.94,3274884.41 603467.94,3274884.41 603457.33,3274884.32 603457.33,3274884.32 603444.83,3274884.17 603444.83,3274884.17 603432.76,3274883.99 603432.76,3274883.99 603421.93,3274883.89 603421.93,3274883.89 603414.11,3274883.78 603414.11,3274883.78 603401.24,3274883.64 603401.24,3274883.64 603386.82,3274883.45 603386.82,3274883.45 603371.88,3274883.32 603371.88,3274883.32 603358.29,3274883.20 603358.29,3274883.20 603341.21,3274883.00 603341.21,3274883.00 603321.10,3274882.80 603321.10,3274882.80 603301.93,3274882.57 603301.93,3274882.57 603289.37,3274882.47 603289.37,3274882.47 603270.92,3274882.30 603270.92,3274882.30 603258.63,3274882.14 603258.63,3274882.14 603239.19,3274881.94 603239.19,3274881.94 603222.99,3274881.79 603222.99,3274881.79 603206.83,3274881.61 603206.83,3274881.61 603195.77,3274881.48 603195.77,3274881.48 603183.49,3274881.37 603183.49,3274881.37 603166.92,3274881.15 603166.92,3274881.15 603153.37,3274881.02 603153.37,3274881.02 603142.10,3274880.89 603142.10,3274880.89 603129.50,3274880.74 603129.50,3274880.74 603116.93,3274880.62 603116.93,3274880.62 603100.29,3274880.40 603100.29,3274880.40 603083.17,3274880.21 603083.17,3274880.21 603065.06,3274880.04 603065.06,3274880.04 603048.59,3274879.87 603048.59,3274879.87 603028.17,3274879.58 603028.17,3274879.58 603018.87,3274879.50 603018.87,3274879.50 603007.65,3274879.39 603007.65,3274879.39 602998.71,3274879.28 602998.71,3274879.28 602990.73,3274879.19 602990.73,3274879.19 602979.55,3274879.05 602979.55,3274879.05 602962.61,3274878.93 602962.61,3274878.93 602946.76,3274878.75 602946.76,3274878.75 602931.88,3274878.60 602931.88,3274878.60 602921.30,3274878.53 602921.30,3274878.53 602910.11,3274878.41 602910.11,3274878.41 602902.17,3274878.29 602902.17,3274878.29 602889.04,3274878.18 602889.04,3274878.18 602870.08,3274877.99 602870.08,3274877.99 602860.92,3274877.90 602860.92,3274877.90 602847.33,3274877.74 602847.33,3274877.74 602835.97,3274877.62 602835.97,3274877.62 602826.43,3274877.52 602826.43,3274877.52 602799.62,3274877.31 602799.62,3274877.31 602774.74,3274876.97 602774.74,3274876.97 602767.85,3274876.92 602767.85,3274876.92 602758.81,3274876.87 602758.81,3274876.87 602748.45,3274876.74 602748.45,3274876.74 602738.62,3274876.63 602738.62,3274876.63 602728.97,3274876.53 602728.97,3274876.53 602719.43,3274876.43 602719.43,3274876.43 602706.73,3274876.30 602706.73,3274876.30 602695.95,3274876.22 602695.95,3274876.22 602687.30,3274876.11 602687.30,3274876.11 602679.04,3274876.02 602679.04,3274876.02 602673.55,3274875.96 602673.55,3274875.96 602664.85,3274875.88 602664.85,3274875.88 602656.22,3274875.78 602656.22,3274875.78 602649.02,3274875.70 602649.02,3274875.70 602637.21,3274875.59 602637.21,3274875.59 602626.72,3274875.45 602626.72,3274875.45 602621.31,3274875.44 602621.31,3274875.44 602615.35,3274875.36 602615.35,3274875.36 602608.41,3274875.28 602608.41,3274875.28 602600.71,3274875.21 602600.71,3274875.21 602588.70,3274875.04 602588.70,3274875.04 602584.71,3274875.02 602584.71,3274875.02 602577.82,3274874.93 602577.82,3274874.93 602569.37,3274874.86 602569.37,3274874.86 602562.50,3274874.78 602562.50,3274874.78 602554.17,3274874.70 602554.17,3274874.70 602543.09,3274874.58 602543.09,3274874.58 602534.43,3274874.49 602534.43,3274874.49 602518.99,3274874.31 602518.99,3274874.31 602505.02,3274874.19 602505.02,3274874.19 602494.13,3274874.04 602494.13,3274874.04 602485.51,3274873.99 602485.51,3274873.99 602473.76,3274873.88 602473.76,3274873.88 602465.02,3274873.76 602465.02,3274873.76 602456.27,3274873.73 602456.27,3274873.73 602450.52,3274873.67 602450.52,3274873.67 602444.73,3274873.66 602444.73,3274873.66 602439.12,3274873.69 602439.12,3274873.69 602428.23,3274873.82 602428.23,3274873.82 602402.69,3274873.60 602402.69,3274873.60 602389.23,3274873.57 602389.23,3274873.57 602377.53,3274873.41 602377.53,3274873.41 602358.38,3274873.23 602358.38,3274873.23 602343.80,3274873.07">
        <lane index="0" width="3.66" type="shoulder" disallow="all" />
        <lane index="1" width="3.66" />
        <lane index="2" width="3.66" />
    </edge>
    <edge id="549.0" from="node_533_end" to="node_528_start" numLanes="2" speed="13.89" type="town" shape="602261.55,3274872.14 602226.04,3274871.73 602226.04,3274871.73 602216.36,3274871.59">
        <lane index="0" width="3.66" />
        <lane index="1" width="3.66" />
    </edge>
    <edge id="553.0" from="junction_41" to="junction_104" numLanes="3" speed="13.89" type="town" shape="601139.55,3274862.82 601126.08,3274862.62 601126.08,3274862.62 601107.45,3274862.44 601107.45,3274862.44 601097.06,3274862.36 601097.06,3274862.36 601088.33,3274862.28 601088.33,3274862.28 601080.68,3274862.21 601080.68,3274862.21 601069.91,3274862.02 601069.91,3274862.02 601056.60,3274861.91 601056.60,3274861.91 601048.16,3274861.78 601048.16,3274861.78 601037.93,3274861.63 601037.93,3274861.63 601024.89,3274861.54 601024.89,3274861.54 601005.77,3274861.39 601005.77,3274861.39 600993.53,3274861.19 600993.53,3274861.19 600979.09,3274861.03 600979.09,3274861.03 600968.66,3274860.92 600968.66,3274860.92 600957.90,3274860.85 600957.90,3274860.85 600945.76,3274860.76 600945.76,3274860.76 600936.19,3274860.68 600936.19,3274860.68 600918.17,3274860.47 600918.17,3274860.47 600897.58,3274860.26 600897.58,3274860.26 600884.10,3274860.13 600884.10,3274860.13 600873.96,3274860.00 600873.96,3274860.00 600867.29,3274859.88 600867.29,3274859.88 600859.96,3274859.81 600859.96,3274859.81 600848.11,3274859.75 600848.11,3274859.75 600830.31,3274859.48 600830.31,3274859.48 600811.44,3274859.32 600811.44,3274859.32 600797.92,3274859.18 600797.92,3274859.18 600784.51,3274858.98 600784.51,3274858.98 600774.64,3274858.90 600774.64,3274858.90 600749.75,3274858.72 600749.75,3274858.72 600734.40,3274858.55 600734.40,3274858.55 600723.37,3274858.36 600723.37,3274858.36 600711.90,3274858.18 600711.90,3274858.18 600693.38,3274857.95 600693.38,3274857.95 600686.10,3274858.01 600686.10,3274858.01 600679.07,3274858.00">
        <lane index="0" width="3.66" />
        <lane index="1" width="3.66" />
        <lane index="2" width="3.66" />
    </edge>
    <edge id="554.0" from="node_554_start" to="node_554_end" numLanes="3" speed="13.89" type="town" shape="598772.72,3274178.00 598765.99,3274172.28 598765.99,3274172.28 598758.09,3274165.59 598758.09,3274165.59 598745.87,3274155.46 598745.87,3274155.46 598734.39,3274146.16 598734.39,3274146.16 598724.66,3274138.40 598724.66,3274138.40 598711.67,3274127.95 598711.67,3274127.95 598703.46,3274121.31 598703.46,3274121.31 598691.69,3274111.89 598691.69,3274111.89 598681.65,3274103.81 598681.65,3274103.81 598673.69,3274097.36">
        <lane index="0" width="3.66" type="shoulder" disallow="all" />
        <lane index="1" width="3.66" />
        <lane index="2" width="3.66" />
    </edge>
    <edge id="561.0" from="node_561_start" to="node_554_start" numLanes="2" speed="13.89" type="town" shape="598805.32,3274205.05 598800.76,3274201.41 598800.76,3274201.41 598789.02,3274191.71 598789.02,3274191.71 598778.01,3274182.48 598778.01,3274182.48 598772.72,3274178.00">
        <lane index="0" width="3.66" />
        <lane index="1" width="3.66" />
    </edge>
    <edge id="564.0" from="junction_106" to="node_564_end" numLanes="2" speed="13.89" type="town" shape="599922.35,3274839.65 599913.93,3274838.57 599913.93,3274838.57 599901.17,3274836.74 599901.17,3274836.74 599888.28,3274834.80 599888.28,3274834.80 599876.68,3274832.83 599876.68,3274832.83 599862.25,3274830.31 599862.25,3274830.31 599855.64,3274829.11">
        <lane index="0" width="3.66" />
        <lane index="1" width="3.66" />
    </edge>
    <edge id="566.0" from="junction_104" to="node_566_end" numLanes="3" speed="13.89" type="town" shape="600649.31,3274856.55 600642.30,3274856.23 600642.30,3274856.23 600623.83,3274855.38 600623.83,3274855.38 600603.56,3274854.83 600603.56,3274854.83 600579.56,3274854.42 600579.56,3274854.42 600558.44,3274854.07 600558.44,3274854.07 600547.79,3274853.90 600547.79,3274853.90 600540.09,3274853.81 600540.09,3274853.81 600528.67,3274853.66 600528.67,3274853.66 600508.88,3274853.56 600508.88,3274853.56 600496.81,3274853.42 600496.81,3274853.42 600478.05,3274853.22 600478.05,3274853.22 600470.45,3274853.09 600470.45,3274853.09 600461.67,3274853.02 600461.67,3274853.02 600452.47,3274852.90 600452.47,3274852.90 600445.88,3274852.83 600445.88,3274852.83 600438.69,3274852.74 600438.69,3274852.74 600427.72,3274852.58 600427.72,3274852.58 600420.58,3274852.52 600420.58,3274852.52 600413.66,3274852.49 600413.66,3274852.49 600401.70,3274852.39 600401.70,3274852.39 600384.14,3274852.23 600384.14,3274852.23 600375.07,3274852.15 600375.07,3274852.15 600359.05,3274851.99 600359.05,3274851.99 600341.65,3274851.85 600341.65,3274851.85 600324.41,3274851.59 600324.41,3274851.59 600309.42,3274851.42 600309.42,3274851.42 600285.82,3274851.17 600285.82,3274851.17 600265.11,3274850.95 600265.11,3274850.95 600245.71,3274850.80 600245.71,3274850.80 600226.56,3274850.69 600226.56,3274850.69 600210.85,3274850.43 600210.85,3274850.43 600192.57,3274850.17 600192.57,3274850.17 600182.06,3274850.09">
        <lane index="0" width="3.66" type="shoulder" disallow="all" />
        <lane index="1" width="3.66" />
        <lane index="2" width="3.66" />
    </edge>
    <edge id="567.0" from="junction_104" to="node_567_end" numLanes="1" speed="13.89" type="town" shape="600649.85,3274866.58 600643.09,3274867.20 600643.09,3274867.20 600617.41,3274869.56 600617.41,3274869.56 600599.93,3274871.22 600599.93,3274871.22 600580.66,3274873.07 600580.66,3274873.07 600568.02,3274874.28 600568.02,3274874.28 600553.70,3274875.58 600553.70,3274875.58 600528.10,3274877.91 600528.10,3274877.91 600506.69,3274879.80 600506.69,3274879.80 600477.20,3274882.40">
        <lane index="0" width="3.66" />
    </edge>
    <edge id="568.0" from="node_566_end" to="node_568_end" numLanes="3" speed="13.89" type="town" shape="600182.06,3274850.09 600173.25,3274850.01 600173.25,3274850.01 600154.42,3274849.95 600154.42,3274849.95 600136.33,3274849.90 600136.33,3274849.90 600123.35,3274849.98">
        <lane index="0" width="3.66" type="shoulder" disallow="all" />
        <lane index="1" width="3.66" />
        <lane index="2" width="3.66" />
    </edge>
    <edge id="569.0" from="junction_106" to="node_569_end" numLanes="2" speed="13.89" type="town" shape="599921.97,3274846.65 599910.56,3274846.29 599910.56,3274846.29 599898.16,3274845.94 599898.16,3274845.94 599886.80,3274845.53 599886.80,3274845.53 599875.42,3274845.18 599875.42,3274845.18 599857.97,3274844.54 599857.97,3274844.54 599841.98,3274843.97 599841.98,3274843.97 599825.55,3274843.50 599825.55,3274843.50 599805.69,3274843.02 599805.69,3274843.02 599778.78,3274841.82 599778.78,3274841.82 599759.40,3274840.48 599759.40,3274840.48 599739.11,3274838.41 599739.11,3274838.41 599727.28,3274836.91">
        <lane index="0" width="3.66" type="shoulder" disallow="all" />
        <lane index="1" width="3.66" />
    </edge>
    <edge id="573.0" from="node_554_end" to="junction_42" numLanes="3" speed="13.89" type="town" shape="598673.69,3274097.36 598658.59,3274085.17 598658.59,3274085.17 598648.39,3274076.86 598648.39,3274076.86 598637.22,3274067.88 598637.22,3274067.88 598629.27,3274061.52 598629.27,3274061.52 598617.13,3274051.78 598617.13,3274051.78 598600.32,3274038.31 598600.32,3274038.31 598590.66,3274030.65 598590.66,3274030.65 598583.38,3274024.85 598583.38,3274024.85 598574.67,3274017.91 598574.67,3274017.91 598567.69,3274012.32 598567.69,3274012.32 598545.33,3273994.53 598545.33,3273994.53 598536.65,3273987.59 598536.65,3273987.59 598526.87,3273979.76 598526.87,3273979.76 598515.82,3273970.93 598515.82,3273970.93 598501.20,3273959.30 598501.20,3273959.30 598490.11,3273950.48">
        <lane index="0" width="3.66" type="shoulder" disallow="all" />
        <lane index="1" width="3.66" />
        <lane index="2" width="3.66" />
    </edge>
    <edge id="576.0" from="node_576_start" to="junction_42" numLanes="1" speed="13.89" type="town" shape="598671.55,3274123.72 598635.99,3274092.44 598635.99,3274092.44 598593.80,3274055.34 598593.80,3274055.34 598562.29,3274027.48 598562.29,3274027.48 598547.41,3274014.37 598547.41,3274014.37 598532.56,3274001.25 598532.56,3274001.25 598520.45,3273990.55 598520.45,3273990.55 598510.04,3273981.43 598510.04,3273981.43 598497.69,3273970.48 598497.69,3273970.48 598483.77,3273958.23">
        <lane index="0" width="3.66" />
    </edge>
    <edge id="577.0" from="node_568_end" to="junction_106" numLanes="3" speed="13.89" type="town" shape="600123.35,3274849.98 600116.57,3274850.02 600116.57,3274850.02 600097.79,3274850.11 600097.79,3274850.11 600078.64,3274850.17 600078.64,3274850.17 600065.95,3274850.14 600065.95,3274850.14 600052.02,3274849.83 600052.02,3274849.83 600038.88,3274849.39 600038.88,3274849.39 600027.92,3274848.96 600027.92,3274848.96 600014.19,3274848.27 600014.19,3274848.27 600001.60,3274847.54 600001.60,3274847.54 599989.40,3274846.75 599989.40,3274846.75 599985.19,3274846.37">
        <lane index="0" width="3.66" type="shoulder" disallow="all" />
        <lane index="1" width="3.66" />
        <lane index="2" width="3.66" />
    </edge>
    <edge id="580.0" from="node_564_end" to="node_561_start" numLanes="2" speed="13.89" type="town" shape="599855.64,3274829.11 599847.19,3274827.57 599847.19,3274827.57 599832.93,3274824.81 599832.93,3274824.81 599815.86,3274821.29 599815.86,3274821.29 599798.59,3274817.49 599798.59,3274817.49 599782.33,3274813.75 599782.33,3274813.75 599766.60,3274809.97 599766.60,3274809.97 599754.23,3274806.79 599754.23,3274806.79 599742.95,3274803.73 599742.95,3274803.73 599731.08,3274800.52 599731.08,3274800.52 599717.98,3274796.80 599717.98,3274796.80 599705.74,3274793.21 599705.74,3274793.21 599689.30,3274788.19 599689.30,3274788.19 599674.32,3274783.33 599674.32,3274783.33 599662.43,3274779.32 599662.43,3274779.32 599646.26,3274773.87 599646.26,3274773.87 599636.19,3274770.44 599636.19,3274770.44 599619.75,3274764.34 599619.75,3274764.34 599600.92,3274757.32 599600.92,3274757.32 599582.78,3274750.15 599582.78,3274750.15 599566.53,3274743.52 599566.53,3274743.52 599545.37,3274734.43 599545.37,3274734.43 599529.91,3274727.62 599529.91,3274727.62 599517.64,3274722.00 599517.64,3274722.00 599500.81,3274714.11 599500.81,3274714.11 599488.37,3274708.13 599488.37,3274708.13 599473.56,3274700.82 599473.56,3274700.82 599463.77,3274695.69 599463.77,3274695.69 599449.04,3274688.10 599449.04,3274688.10 599436.17,3274681.19 599436.17,3274681.19 599425.35,3274675.27 599425.35,3274675.27 599411.45,3274667.55 599411.45,3274667.55 599395.81,3274658.39 599395.81,3274658.39 599381.44,3274649.79 599381.44,3274649.79 599370.22,3274642.97 599370.22,3274642.97 599356.89,3274634.58 599356.89,3274634.58 599345.13,3274627.07 599345.13,3274627.07 599332.43,3274618.84 599332.43,3274618.84 599318.63,3274609.67 599318.63,3274609.67 599305.30,3274600.48 599305.30,3274600.48 599292.88,3274591.80 599292.88,3274591.80 599278.83,3274581.75 599278.83,3274581.75 599267.89,3274573.71 599267.89,3274573.71 599252.31,3274561.97 599252.31,3274561.97 599242.90,3274554.68 599242.90,3274554.68 599230.32,3274544.82 599230.32,3274544.82 599220.47,3274537.10 599220.47,3274537.10 599206.59,3274526.23 599206.59,3274526.23 599194.40,3274516.49 599194.40,3274516.49 599181.21,3274506.00 599181.21,3274506.00 599163.27,3274491.73 599163.27,3274491.73 599146.95,3274478.88 599146.95,3274478.88 599128.67,3274464.31 599128.67,3274464.31 599112.54,3274451.44 599112.54,3274451.44 599093.91,3274436.43 599093.91,3274436.43 599076.94,3274422.72 599076.94,3274422.72 599063.61,3274411.93 599063.61,3274411.93 599051.05,3274401.83 599051.05,3274401.83 599037.78,3274391.19 599037.78,3274391.19 599025.11,3274380.95 599025.11,3274380.95 599014.01,3274371.96 599014.01,3274371.96 599000.14,3274360.75 599000.14,3274360.75 598986.75,3274349.90 598986.75,3274349.90 598976.57,3274341.71 598976.57,3274341.71 598966.10,3274333.36 598966.10,3274333.36 598955.81,3274324.96 598955.81,3274324.96 598944.31,3274315.73 598944.31,3274315.73 598932.55,3274306.35 598932.55,3274306.35 598917.11,3274294.01 598917.11,3274294.01 598903.73,3274283.33 598903.73,3274283.33 598889.42,3274271.95 598889.42,3274271.95 598876.54,3274261.64 598876.54,3274261.64 598863.39,3274251.12 598863.39,3274251.12 598852.36,3274242.33 598852.36,3274242.33 598841.52,3274233.72 598841.52,3274233.72 598829.31,3274224.06 598829.31,3274224.06 598812.53,3274210.80 598812.53,3274210.80 598805.32,3274205.05">
        <lane index="0" width="3.66" />
        <lane index="1" width="3.66" />
    </edge>
    <edge id="581.0" from="node_581_start" to="junction_41" numLanes="1" speed="13.89" type="town" shape="601333.03,3274895.15 601299.46,3274890.18 601299.46,3274890.18 601273.41,3274886.45 601273.41,3274886.45 601244.93,3274882.42 601244.93,3274882.42 601200.52,3274876.46">
        <lane index="0" width="3.66" />
    </edge>
</edges>