<?xml version="1.0" encoding="UTF-8"?>

<!-- generated on 2025-10-19 17:33:41 by Eclipse SUMO netconvert Version 1.23.1
<netconvertConfiguration xmlns:xsi="http://www.w3.org/2001/XMLSchema-instance" xsi:noNamespaceSchemaLocation="http://sumo.dlr.de/xsd/netconvertConfiguration.xsd">

    <input>
        <node-files value="/home/sdai/harry/TeraSim/jupiter/wb/jupiter_wb_tiles/tile_0000/tile_0000.nod.xml"/>
        <edge-files value="/home/sdai/harry/TeraSim/jupiter/wb/jupiter_wb_tiles/tile_0000/tile_0000.edg.xml"/>
        <connection-files value="/home/sdai/harry/TeraSim/jupiter/wb/jupiter_wb_tiles/tile_0000/tile_0000.con.xml"/>
    </input>

    <output>
        <output-file value="/home/sdai/harry/TeraSim/jupiter/wb/jupiter_wb_tiles/tile_0000/tile_0000.net.xml"/>
        <output.street-names value="true"/>
        <output.original-names value="true"/>
    </output>

    <processing>
        <geometry.remove value="false"/>
        <geometry.min-dist value="0.5"/>
        <edges.join value="false"/>
    </processing>

    <junctions>
        <no-internal-links value="false"/>
        <no-turnarounds value="true"/>
        <junctions.join value="true"/>
        <junctions.join-dist value="10"/>
        <junctions.corner-detail value="5"/>
        <junctions.internal-link-detail value="5"/>
        <junctions.limit-turn-speed value="5.5"/>
        <rectangular-lane-cut value="true"/>
        <check-lane-foes.all value="true"/>
    </junctions>

</netconvertConfiguration>
-->

<net version="1.20" junctionCornerDetail="5" junctionLinkDetail="5" rectangularLaneCut="true" limitTurnSpeed="5.50" checkLaneFoesAll="1" xmlns:xsi="http://www.w3.org/2001/XMLSchema-instance" xsi:noNamespaceSchemaLocation="http://sumo.dlr.de/xsd/net_file.xsd">

    <location netOffset="-563427.30,-3258001.36" convBoundary="0.00,0.00,8196.09,2871.32" origBoundary="0.00,0.00,571630.00,3260875.13" projParameter="!"/>

    <edge id=":j_merge_end_54_0" function="internal">
        <lane id=":j_merge_end_54_0_0" index="0" disallow="all" speed="13.89" length="48.02" width="3.66" shape="901.47,353.28 888.87,345.60 882.52,336.56 876.16,327.51 863.57,319.83"/>
        <lane id=":j_merge_end_54_0_1" index="1" speed="13.89" length="48.02" width="3.66" shape="904.00,346.41 859.77,330.13"/>
        <lane id=":j_merge_end_54_0_2" index="2" speed="13.89" length="48.02" width="3.66" shape="905.26,342.98 861.04,326.70"/>
        <lane id=":j_merge_end_54_0_3" index="3" speed="13.89" length="48.02" width="3.66" shape="906.52,339.54 862.30,323.26"/>
        <lane id=":j_merge_end_54_0_4" index="4" disallow="all" speed="13.89" length="48.02" width="3.66" shape="907.79,336.11 863.57,319.83"/>
    </edge>
    <edge id=":j_merge_start_54_0" function="internal">
        <lane id=":j_merge_start_54_0_0" index="0" speed="13.89" length="51.77" width="3.66" shape="1003.90,394.91 956.68,373.68"/>
    </edge>
    <edge id=":j_merge_start_54_1" function="internal">
        <lane id=":j_merge_start_54_1_0" index="0" speed="13.89" length="51.56" width="3.66" shape="1007.63,384.61 959.23,366.81"/>
        <lane id=":j_merge_start_54_1_1" index="1" speed="13.89" length="51.56" width="3.66" shape="1008.90,381.18 960.50,363.38"/>
        <lane id=":j_merge_start_54_1_2" index="2" speed="13.89" length="51.56" width="3.66" shape="1010.16,377.74 961.77,359.95"/>
        <lane id=":j_merge_start_54_1_3" index="3" disallow="all" speed="13.89" length="51.56" width="3.66" shape="1011.43,374.31 963.04,356.52"/>
    </edge>
    <edge id=":junction_115_0" function="internal">
        <lane id=":junction_115_0_0" index="0" speed="13.89" length="126.51" width="3.66" shape="4630.81,1601.61 4508.25,1570.28"/>
    </edge>
    <edge id=":junction_115_1" function="internal">
        <lane id=":junction_115_1_0" index="0" speed="13.89" length="127.49" width="3.66" shape="4631.88,1598.11 4510.06,1560.48"/>
        <lane id=":junction_115_1_1" index="1" speed="13.89" length="127.49" width="3.66" shape="4632.95,1594.61 4511.14,1556.98"/>
        <lane id=":junction_115_1_2" index="2" speed="13.89" length="127.49" width="3.66" shape="4634.02,1591.11 4512.22,1553.48"/>
        <lane id=":junction_115_1_3" index="3" disallow="all" speed="13.89" length="127.49" width="3.66" shape="4635.09,1587.61 4513.30,1549.98"/>
    </edge>
    <edge id=":junction_116_0" function="internal">
        <lane id=":junction_116_0_0" index="0" speed="13.89" length="545.29" width="3.66" shape="2239.51,838.34 1727.54,649.53"/>
        <lane id=":junction_116_0_1" index="1" speed="13.89" length="545.29" width="3.66" shape="2240.54,834.83 1728.81,646.10"/>
        <lane id=":junction_116_0_2" index="2" speed="13.89" length="545.29" width="3.66" shape="2241.56,831.31 1730.08,642.67"/>
        <lane id=":junction_116_0_3" index="3" disallow="all" speed="13.89" length="545.29" width="3.66" shape="2242.59,827.80 1731.35,639.24"/>
    </edge>
    <edge id=":junction_124_0" function="internal">
        <lane id=":junction_124_0_0" index="0" speed="13.89" length="73.31" width="3.66" shape="5956.65,2036.65 5886.80,2014.37"/>
    </edge>
    <edge id=":junction_124_1" function="internal">
        <lane id=":junction_124_1_0" index="0" speed="13.89" length="73.71" width="3.66" shape="5956.65,2036.65 5887.67,2010.68"/>
        <lane id=":junction_124_1_1" index="1" speed="13.89" length="73.71" width="3.66" shape="5957.94,2033.23 5888.96,2007.25"/>
        <lane id=":junction_124_1_2" index="2" speed="13.89" length="73.71" width="3.66" shape="5959.23,2029.80 5890.24,2003.83"/>
        <lane id=":junction_124_1_3" index="3" disallow="all" speed="13.89" length="73.71" width="3.66" shape="5960.52,2026.37 5891.52,2000.40"/>
    </edge>
    <edge id=":junction_53_0" function="internal">
        <lane id=":junction_53_0_0" index="0" speed="13.89" length="236.13" width="3.66" shape="3612.35,1282.12 3386.72,1212.50"/>
        <lane id=":junction_53_0_1" index="1" speed="13.89" length="236.13" width="3.66" shape="3613.43,1278.63 3387.80,1209.00"/>
        <lane id=":junction_53_0_2" index="2" speed="13.89" length="236.13" width="3.66" shape="3614.52,1275.13 3388.87,1205.50"/>
    </edge>
    <edge id=":junction_53_3" function="internal">
        <lane id=":junction_53_3_0" index="0" speed="13.89" length="232.43" width="3.66" shape="3607.77,1284.42 3384.58,1219.49"/>
        <lane id=":junction_53_3_1" index="1" speed="13.89" length="232.43" width="3.66" shape="3607.77,1284.42 3385.65,1215.99"/>
    </edge>
    <edge id=":junction_53_5" function="internal">
        <lane id=":junction_53_5_0" index="0" speed="13.89" length="139.94" width="3.66" shape="3519.03,1258.07 3386.72,1212.50"/>
    </edge>
    <edge id=":junction_58_0" function="internal">
        <lane id=":junction_58_0_0" index="0" speed="13.89" length="74.15" width="3.66" shape="6802.32,2359.24 6734.55,2329.54"/>
        <lane id=":junction_58_0_1" index="1" speed="13.89" length="74.15" width="3.66" shape="6802.32,2359.24 6793.26,2354.53 6776.11,2345.29 6755.45,2334.75 6735.84,2326.12"/>
    </edge>
    <edge id=":junction_58_2" function="internal">
        <lane id=":junction_58_2_0" index="0" speed="13.89" length="73.86" width="3.66" shape="6803.65,2355.64 6734.55,2329.54"/>
        <lane id=":junction_58_2_1" index="1" speed="13.89" length="73.86" width="3.66" shape="6804.93,2352.22 6735.84,2326.12"/>
        <lane id=":junction_58_2_2" index="2" speed="13.89" length="73.86" width="3.66" shape="6806.22,2348.79 6737.13,2322.69"/>
        <lane id=":junction_58_2_3" index="3" disallow="all" speed="13.89" length="73.86" width="3.66" shape="6807.51,2345.36 6738.42,2319.26"/>
    </edge>
    <edge id=":node_677_end_0" function="internal">
        <lane id=":node_677_end_0_0" index="0" speed="13.89" length="0.30" width="3.66" shape="7794.88,2728.92 7794.59,2728.81"/>
        <lane id=":node_677_end_0_1" index="1" speed="13.89" length="0.30" width="3.66" shape="7796.17,2725.49 7795.89,2725.39"/>
        <lane id=":node_677_end_0_2" index="2" speed="13.89" length="0.30" width="3.66" shape="7797.46,2722.07 7797.19,2721.97"/>
    </edge>
    <edge id=":node_677_start_0" function="internal">
        <lane id=":node_677_start_0_0" index="0" speed="13.89" length="0.30" width="3.66" shape="7893.81,2766.13 7893.55,2766.03"/>
        <lane id=":node_677_start_0_1" index="1" speed="13.89" length="0.30" width="3.66" shape="7895.12,2762.71 7894.84,2762.61"/>
        <lane id=":node_677_start_0_2" index="2" speed="13.89" length="0.30" width="3.66" shape="7896.42,2759.29 7896.12,2759.18"/>
    </edge>
    <edge id=":node_679_end_0" function="internal">
        <lane id=":node_679_end_0_0" index="0" speed="13.89" length="0.30" width="3.66" shape="7900.67,2768.75 7900.37,2768.64"/>
        <lane id=":node_679_end_0_1" index="1" speed="13.89" length="0.30" width="3.66" shape="7901.96,2765.33 7901.68,2765.22"/>
        <lane id=":node_679_end_0_2" index="2" speed="13.89" length="0.30" width="3.66" shape="7903.25,2761.90 7902.99,2761.80"/>
    </edge>
    <edge id=":node_680_end_0" function="internal">
        <lane id=":node_680_end_0_0" index="0" speed="13.89" length="0.30" width="3.66" shape="7358.45,2564.58 7358.17,2564.47"/>
        <lane id=":node_680_end_0_1" index="1" speed="13.89" length="0.30" width="3.66" shape="7359.74,2561.15 7359.46,2561.05"/>
        <lane id=":node_680_end_0_2" index="2" speed="13.89" length="0.30" width="3.66" shape="7361.04,2557.73 7360.76,2557.62"/>
    </edge>
    <edge id=":node_680_start_0" function="internal">
        <lane id=":node_680_start_0_0" index="0" speed="13.89" length="0.30" width="3.66" shape="7562.53,2641.47 7562.26,2641.37"/>
        <lane id=":node_680_start_0_1" index="1" speed="13.89" length="0.30" width="3.66" shape="7563.82,2638.04 7563.54,2637.94"/>
        <lane id=":node_680_start_0_2" index="2" speed="13.89" length="0.30" width="3.66" shape="7565.11,2634.62 7564.82,2634.51"/>
    </edge>
    <edge id=":node_682_end_0" function="internal">
        <lane id=":node_682_end_0_0" index="0" speed="13.89" length="3.00" width="3.66" shape="6959.45,2414.34 6956.65,2413.28"/>
        <lane id=":node_682_end_0_1" index="1" speed="13.89" length="3.00" width="3.66" shape="6960.74,2410.91 6957.94,2409.85"/>
        <lane id=":node_682_end_0_2" index="2" speed="13.89" length="3.00" width="3.66" shape="6962.04,2407.49 6959.23,2406.43"/>
    </edge>
    <edge id=":node_682_start_0" function="internal">
        <lane id=":node_682_start_0_0" index="0" speed="13.89" length="0.30" width="3.66" shape="7314.83,2548.07 7314.57,2547.97"/>
        <lane id=":node_682_start_0_1" index="1" speed="13.89" length="0.30" width="3.66" shape="7316.13,2544.65 7315.85,2544.54"/>
        <lane id=":node_682_start_0_2" index="2" speed="13.89" length="0.30" width="3.66" shape="7317.42,2541.23 7317.13,2541.12"/>
    </edge>
    <edge id=":node_689_start_0" function="internal">
        <lane id=":node_689_start_0_0" index="0" speed="13.89" length="0.30" width="3.66" shape="7754.31,2713.53 7754.04,2713.43"/>
        <lane id=":node_689_start_0_1" index="1" speed="13.89" length="0.30" width="3.66" shape="7755.61,2710.11 7755.33,2710.00"/>
        <lane id=":node_689_start_0_2" index="2" speed="13.89" length="0.30" width="3.66" shape="7756.91,2706.68 7756.62,2706.57"/>
    </edge>
    <edge id=":node_715_end_0" function="internal">
        <lane id=":node_715_end_0_0" index="0" speed="13.89" length="8.57" width="3.66" shape="3111.16,1128.15 3103.45,1125.77"/>
        <lane id=":node_715_end_0_1" index="1" speed="13.89" length="8.57" width="3.66" shape="3111.16,1128.15 3108.96,1126.79 3107.87,1125.15 3106.77,1123.54 3104.53,1122.28"/>
    </edge>
    <edge id=":node_715_end_2" function="internal">
        <lane id=":node_715_end_2_0" index="0" speed="13.89" length="8.00" width="3.66" shape="3111.09,1128.14 3103.45,1125.77"/>
        <lane id=":node_715_end_2_1" index="1" speed="13.89" length="8.00" width="3.66" shape="3112.17,1124.65 3104.53,1122.28"/>
        <lane id=":node_715_end_2_2" index="2" speed="13.89" length="8.00" width="3.66" shape="3113.26,1121.15 3105.62,1118.78"/>
        <lane id=":node_715_end_2_3" index="3" speed="13.89" length="8.00" width="3.66" shape="3114.34,1117.66 3106.70,1115.29"/>
    </edge>
    <edge id=":node_715_start_0" function="internal">
        <lane id=":node_715_start_0_0" index="0" speed="13.89" length="3.43" width="3.66" shape="3222.92,1168.27 3219.76,1166.92"/>
    </edge>
    <edge id=":node_715_start_1" function="internal">
        <lane id=":node_715_start_1_0" index="0" speed="13.89" length="3.00" width="3.66" shape="3224.06,1164.80 3221.21,1163.86"/>
        <lane id=":node_715_start_1_1" index="1" speed="13.89" length="3.00" width="3.66" shape="3225.20,1161.32 3222.35,1160.38"/>
        <lane id=":node_715_start_1_2" index="2" speed="13.89" length="3.00" width="3.66" shape="3226.34,1157.84 3223.49,1156.91"/>
        <lane id=":node_715_start_1_3" index="3" speed="13.89" length="3.00" width="3.66" shape="3227.48,1154.36 3224.63,1153.43"/>
    </edge>
    <edge id=":node_718_start_0" function="internal">
        <lane id=":node_718_start_0_0" index="0" speed="13.89" length="0.30" width="3.66" shape="4942.41,1697.40 4942.13,1697.31"/>
        <lane id=":node_718_start_0_1" index="1" speed="13.89" length="0.30" width="3.66" shape="4943.54,1693.92 4943.26,1693.83"/>
        <lane id=":node_718_start_0_2" index="2" speed="13.89" length="0.30" width="3.66" shape="4944.68,1690.44 4944.39,1690.35"/>
        <lane id=":node_718_start_0_3" index="3" speed="13.89" length="0.30" width="3.66" shape="4945.81,1686.96 4945.52,1686.87"/>
    </edge>
    <edge id=":node_719_end_0" function="internal">
        <lane id=":node_719_end_0_0" index="0" speed="13.89" length="0.30" width="3.66" shape="2325.18,873.45 2324.90,873.35"/>
        <lane id=":node_719_end_0_1" index="1" speed="13.89" length="0.30" width="3.66" shape="2326.44,870.02 2326.15,869.91"/>
        <lane id=":node_719_end_0_2" index="2" speed="13.89" length="0.30" width="3.66" shape="2327.69,866.58 2327.41,866.47"/>
        <lane id=":node_719_end_0_3" index="3" speed="13.89" length="0.30" width="3.66" shape="2328.95,863.14 2328.66,863.04"/>
    </edge>
    <edge id=":node_722_end_0" function="internal">
        <lane id=":node_722_end_0_0" index="0" speed="13.89" length="0.30" width="3.66" shape="1478.48,557.89 1478.20,557.79"/>
        <lane id=":node_722_end_0_1" index="1" speed="13.89" length="0.30" width="3.66" shape="1479.74,554.45 1479.46,554.35"/>
        <lane id=":node_722_end_0_2" index="2" speed="13.89" length="0.30" width="3.66" shape="1481.00,551.02 1480.72,550.91"/>
    </edge>
    <edge id=":node_723_end_0" function="internal">
        <lane id=":node_723_end_0_0" index="0" speed="13.89" length="0.30" width="3.66" shape="6284.81,2160.20 6284.55,2160.10"/>
        <lane id=":node_723_end_0_1" index="1" speed="13.89" length="0.30" width="3.66" shape="6286.11,2156.78 6285.83,2156.67"/>
        <lane id=":node_723_end_0_2" index="2" speed="13.89" length="0.30" width="3.66" shape="6287.41,2153.36 6287.11,2153.24"/>
    </edge>
    <edge id=":node_723_start_0" function="internal">
        <lane id=":node_723_start_0_0" index="0" speed="13.89" length="0.30" width="3.66" shape="6337.17,2180.02 6336.89,2179.92"/>
        <lane id=":node_723_start_0_1" index="1" speed="13.89" length="0.30" width="3.66" shape="6338.47,2176.60 6338.19,2176.49"/>
        <lane id=":node_723_start_0_2" index="2" speed="13.89" length="0.30" width="3.66" shape="6339.77,2173.18 6339.48,2173.07"/>
    </edge>
    <edge id=":node_724_start_0" function="internal">
        <lane id=":node_724_start_0_0" index="0" speed="13.89" length="3.03" width="3.66" shape="5461.46,1858.11 5458.54,1857.34"/>
    </edge>
    <edge id=":node_724_start_1" function="internal">
        <lane id=":node_724_start_1_0" index="0" speed="13.89" length="3.00" width="3.66" shape="5462.50,1854.75 5459.64,1853.85"/>
        <lane id=":node_724_start_1_1" index="1" speed="13.89" length="3.00" width="3.66" shape="5463.60,1851.26 5460.74,1850.36"/>
        <lane id=":node_724_start_1_2" index="2" speed="13.89" length="3.00" width="3.66" shape="5464.70,1847.77 5461.84,1846.87"/>
    </edge>
    <edge id=":node_726_start_0" function="internal">
        <lane id=":node_726_start_0_0" index="0" speed="13.89" length="7.78" width="3.66" shape="3689.31,1305.98 3681.86,1303.71"/>
    </edge>
    <edge id=":node_726_start_1" function="internal">
        <lane id=":node_726_start_1_0" index="0" speed="13.89" length="8.20" width="3.66" shape="3689.31,1305.98 3681.47,1303.55"/>
        <lane id=":node_726_start_1_1" index="1" speed="13.89" length="8.20" width="3.66" shape="3690.39,1302.48 3682.56,1300.06"/>
        <lane id=":node_726_start_1_2" index="2" speed="13.89" length="8.20" width="3.66" shape="3691.47,1298.98 3683.64,1296.56"/>
    </edge>
    <edge id=":node_730_start_0" function="internal">
        <lane id=":node_730_start_0_0" index="0" speed="13.89" length="0.29" width="3.66" shape="6955.33,2421.79 6955.06,2421.69"/>
    </edge>
    <edge id=":node_735_end_0" function="internal">
        <lane id=":node_735_end_0_0" index="0" speed="13.89" length="0.30" width="3.66" shape="3682.10,1317.42 3681.82,1317.32"/>
    </edge>
    <edge id=":node_740_end_0" function="internal">
        <lane id=":node_740_end_0_0" index="0" speed="13.89" length="0.30" width="3.66" shape="785.00,306.51 784.71,306.40"/>
        <lane id=":node_740_end_0_1" index="1" speed="13.89" length="0.30" width="3.66" shape="786.27,303.07 785.98,302.97"/>
        <lane id=":node_740_end_0_2" index="2" speed="13.89" length="0.30" width="3.66" shape="787.53,299.64 787.25,299.53"/>
        <lane id=":node_740_end_0_3" index="3" speed="13.89" length="0.30" width="3.66" shape="788.79,296.20 788.52,296.10"/>
    </edge>
    <edge id=":node_742_end_0" function="internal">
        <lane id=":node_742_end_0_0" index="0" speed="13.89" length="0.30" width="3.66" shape="760.62,297.52 760.38,297.43"/>
        <lane id=":node_742_end_0_1" index="1" speed="13.89" length="0.30" width="3.66" shape="761.90,294.09 761.63,293.99"/>
        <lane id=":node_742_end_0_2" index="2" speed="13.89" length="0.30" width="3.66" shape="763.18,290.66 762.89,290.55"/>
        <lane id=":node_742_end_0_3" index="3" speed="13.89" length="0.30" width="3.66" shape="764.46,287.23 764.14,287.11"/>
    </edge>
    <edge id=":node_742_start_0" function="internal">
        <lane id=":node_742_start_0_0" index="0" speed="13.89" length="0.30" width="3.66" shape="767.46,300.04 767.18,299.94"/>
        <lane id=":node_742_start_0_1" index="1" speed="13.89" length="0.30" width="3.66" shape="768.72,296.60 768.43,296.50"/>
        <lane id=":node_742_start_0_2" index="2" speed="13.89" length="0.30" width="3.66" shape="769.97,293.17 769.69,293.06"/>
        <lane id=":node_742_start_0_3" index="3" speed="13.89" length="0.30" width="3.66" shape="771.23,289.73 770.95,289.62"/>
    </edge>
    <edge id=":node_745_end_0" function="internal">
        <lane id=":node_745_end_0_0" index="0" speed="13.89" length="0.30" width="3.66" shape="1334.46,504.89 1334.19,504.79"/>
        <lane id=":node_745_end_0_1" index="1" speed="13.89" length="0.30" width="3.66" shape="1335.73,501.46 1335.45,501.35"/>
        <lane id=":node_745_end_0_2" index="2" speed="13.89" length="0.30" width="3.66" shape="1337.00,498.02 1336.72,497.92"/>
    </edge>
    <edge id=":node_745_start_0" function="internal">
        <lane id=":node_745_start_0_0" index="0" speed="13.89" length="0.30" width="3.66" shape="1341.11,507.35 1340.82,507.24"/>
        <lane id=":node_745_start_0_1" index="1" speed="13.89" length="0.30" width="3.66" shape="1342.37,503.91 1342.09,503.81"/>
        <lane id=":node_745_start_0_2" index="2" speed="13.89" length="0.30" width="3.66" shape="1343.63,500.47 1343.36,500.37"/>
    </edge>
    <edge id=":node_856_end_0" function="internal">
        <lane id=":node_856_end_0_0" index="0" speed="13.89" length="7.88" width="3.66" shape="5734.90,1953.26 5727.50,1950.56"/>
    </edge>
    <edge id=":node_856_end_1" function="internal">
        <lane id=":node_856_end_1_0" index="0" speed="13.89" length="8.13" width="3.66" shape="5734.90,1953.26 5727.30,1950.39"/>
        <lane id=":node_856_end_1_1" index="1" speed="13.89" length="8.13" width="3.66" shape="5736.20,1949.83 5728.59,1946.96"/>
        <lane id=":node_856_end_1_2" index="2" speed="13.89" length="8.13" width="3.66" shape="5737.49,1946.41 5729.88,1943.54"/>
    </edge>

    <edge id="677.0" from="node_677_start" to="node_677_end" priority="-1" type="town" shape="7898.22,2754.10 7873.28,2744.74 7848.50,2735.45 7823.89,2726.13 7799.26,2716.88">
        <lane id="677.0_0" index="0" disallow="all" speed="13.89" length="105.42" width="3.66" shape="7892.27,2769.46 7867.50,2760.16 7842.69,2750.86 7818.08,2741.54 7793.60,2732.35" type="shoulder"/>
        <lane id="677.0_1" index="1" speed="13.89" length="105.42" width="3.66" shape="7893.55,2766.03 7868.78,2756.74 7843.98,2747.44 7819.37,2738.12 7794.88,2728.92"/>
        <lane id="677.0_2" index="2" speed="13.89" length="105.42" width="3.66" shape="7894.84,2762.61 7870.07,2753.31 7845.27,2744.01 7820.66,2734.69 7796.17,2725.49"/>
        <lane id="677.0_3" index="3" speed="13.89" length="105.42" width="3.66" shape="7896.12,2759.18 7871.35,2749.88 7846.56,2740.59 7821.95,2731.27 7797.46,2722.07"/>
        <lane id="677.0_4" index="4" disallow="all" speed="13.89" length="105.42" width="3.66" shape="7897.41,2755.75 7872.64,2746.45 7847.85,2737.16 7823.24,2727.84 7798.74,2718.64" type="shoulder"/>
    </edge>
    <edge id="679.0" from="node_894_end" to="node_679_end" priority="-1" type="town" shape="8003.36,2798.00 7994.86,2793.40 7987.05,2788.68 7977.30,2783.89 7964.83,2779.23 7944.78,2771.70 7924.95,2764.22 7905.07,2756.72">
        <lane id="679.0_0" index="0" disallow="all" speed="13.89" length="105.72" width="3.66" shape="7995.52,2812.49 7986.68,2807.70 7979.14,2803.15 7970.77,2799.03 7959.05,2794.65 7938.98,2787.12 7919.14,2779.63 7899.38,2772.18" type="shoulder"/>
        <lane id="679.0_1" index="1" speed="13.89" length="105.72" width="3.66" shape="7997.66,2809.48 7988.50,2804.52 7980.90,2799.93 7972.22,2795.67 7960.33,2791.23 7940.27,2783.69 7920.43,2776.21 7900.67,2768.75"/>
        <lane id="679.0_2" index="2" speed="13.89" length="105.72" width="3.66" shape="7999.40,2806.26 7990.31,2801.35 7982.66,2796.72 7973.67,2792.30 7961.62,2787.80 7941.56,2780.27 7921.72,2772.78 7901.96,2765.33"/>
        <lane id="679.0_3" index="3" speed="13.89" length="105.72" width="3.66" shape="8001.14,2803.04 7992.13,2798.17 7984.41,2793.50 7975.12,2788.94 7962.90,2784.37 7942.85,2776.84 7923.01,2769.36 7903.25,2761.90"/>
        <lane id="679.0_4" index="4" disallow="all" speed="13.89" length="105.72" width="3.66" shape="8002.49,2799.61 7993.95,2794.99 7986.17,2790.29 7976.57,2785.57 7964.19,2780.95 7944.14,2773.41 7924.30,2765.93 7904.54,2758.48" type="shoulder"/>
    </edge>
    <edge id="680.0" from="node_680_start" to="node_680_end" priority="-1" type="town" shape="7566.89,2629.42 7532.76,2616.68 7498.74,2603.95 7464.77,2591.19 7430.82,2578.22 7396.84,2565.38 7362.84,2552.54">
        <lane id="680.0_0" index="0" disallow="all" speed="13.89" length="217.78" width="3.66" shape="7560.98,2644.80 7526.99,2632.11 7492.96,2619.37 7458.94,2606.59 7424.97,2593.62 7391.02,2580.79 7357.16,2568.00" type="shoulder"/>
        <lane id="680.0_1" index="1" speed="13.89" length="217.78" width="3.66" shape="7562.26,2641.37 7528.28,2628.68 7494.24,2615.95 7460.23,2603.17 7426.27,2590.20 7392.31,2577.36 7358.45,2564.58"/>
        <lane id="680.0_2" index="2" speed="13.89" length="217.78" width="3.66" shape="7563.54,2637.94 7529.56,2625.25 7495.53,2612.52 7461.53,2599.75 7427.57,2586.77 7393.61,2573.94 7359.74,2561.15"/>
        <lane id="680.0_3" index="3" speed="13.89" length="217.78" width="3.66" shape="7564.82,2634.51 7530.84,2621.82 7496.81,2609.09 7462.83,2596.33 7428.87,2583.35 7394.90,2570.52 7361.04,2557.73"/>
        <lane id="680.0_4" index="4" disallow="all" speed="13.89" length="217.78" width="3.66" shape="7566.10,2631.08 7532.12,2618.40 7498.10,2605.67 7464.12,2592.90 7430.17,2579.93 7396.19,2567.09 7362.33,2554.31" type="shoulder"/>
    </edge>
    <edge id="682.0" from="node_682_start" to="node_682_end" priority="-1" type="town" shape="7319.21,2536.03 7292.23,2525.94 7249.09,2509.79 7227.03,2501.49 7200.74,2491.58 7180.97,2484.16 7162.70,2477.19 7140.72,2468.88 7120.84,2461.39 7106.89,2456.20 7075.43,2444.30 7041.80,2431.66 7015.35,2421.70 6978.09,2407.67 6962.57,2401.82">
        <lane id="682.0_0" index="0" disallow="all" speed="13.89" length="379.42" width="3.66" shape="7313.28,2551.40 7286.46,2541.37 7243.31,2525.21 7221.22,2516.90 7194.94,2507.00 7175.14,2499.57 7156.85,2492.59 7134.90,2484.29 7115.06,2476.81 7101.10,2471.62 7069.62,2459.71 7036.00,2447.08 7009.55,2437.11 6972.28,2423.08 6958.16,2417.76" type="shoulder"/>
        <lane id="682.0_1" index="1" speed="13.89" length="379.42" width="3.66" shape="7314.57,2547.97 7287.74,2537.94 7244.59,2521.79 7222.51,2513.48 7196.23,2503.57 7176.44,2496.14 7158.15,2489.17 7136.20,2480.87 7116.34,2473.39 7102.39,2468.20 7070.91,2456.29 7037.29,2443.65 7010.84,2433.69 6973.57,2419.66 6959.45,2414.34"/>
        <lane id="682.0_2" index="2" speed="13.89" length="379.42" width="3.66" shape="7315.85,2544.54 7289.02,2534.51 7245.88,2518.36 7223.80,2510.05 7197.52,2500.15 7177.73,2492.72 7159.45,2485.75 7137.49,2477.44 7117.63,2469.96 7103.68,2464.77 7072.20,2452.86 7038.58,2440.23 7012.13,2430.26 6974.86,2416.23 6960.74,2410.91"/>
        <lane id="682.0_3" index="3" speed="13.89" length="379.42" width="3.66" shape="7317.13,2541.12 7290.31,2531.08 7247.16,2514.93 7225.09,2506.63 7198.81,2496.72 7179.03,2489.30 7160.75,2482.32 7138.78,2474.02 7118.91,2466.53 7104.96,2461.34 7073.49,2449.44 7039.87,2436.80 7013.42,2426.84 6976.15,2412.81 6962.04,2407.49"/>
        <lane id="682.0_4" index="4" disallow="all" speed="13.89" length="379.42" width="3.66" shape="7318.41,2537.69 7291.59,2527.66 7248.45,2511.50 7226.38,2503.20 7200.10,2493.29 7180.32,2485.87 7162.05,2478.90 7140.07,2470.59 7120.20,2463.11 7106.25,2457.91 7074.78,2446.01 7041.16,2433.37 7014.71,2423.41 6977.44,2409.38 6963.33,2404.06" type="shoulder"/>
    </edge>
    <edge id="689.0" from="node_689_start" to="node_680_start" priority="-1" type="town" shape="7758.70,2701.49 7734.11,2692.26 7710.40,2683.38 7686.29,2674.36 7662.41,2665.38 7638.42,2656.36 7614.44,2647.35 7590.37,2638.25 7566.89,2629.42">
        <lane id="689.0_0" index="0" disallow="all" speed="13.89" length="204.58" width="3.66" shape="7752.76,2716.85 7728.33,2707.68 7704.63,2698.81 7680.51,2689.78 7656.61,2680.80 7632.63,2671.78 7608.63,2662.76 7584.56,2653.66 7561.24,2644.89" type="shoulder"/>
        <lane id="689.0_1" index="1" speed="13.89" length="204.58" width="3.66" shape="7754.04,2713.43 7729.61,2704.26 7705.91,2695.38 7681.79,2686.36 7657.90,2677.37 7633.91,2668.35 7609.92,2659.34 7585.85,2650.24 7562.53,2641.47"/>
        <lane id="689.0_2" index="2" speed="13.89" length="204.58" width="3.66" shape="7755.33,2710.00 7730.90,2700.83 7707.19,2691.95 7683.08,2682.93 7659.19,2673.95 7635.20,2664.93 7611.21,2655.91 7587.14,2646.81 7563.82,2638.04"/>
        <lane id="689.0_3" index="3" speed="13.89" length="204.58" width="3.66" shape="7756.62,2706.57 7732.18,2697.40 7708.48,2688.52 7684.36,2679.50 7660.48,2670.52 7636.49,2661.50 7612.50,2652.49 7588.43,2643.39 7565.11,2634.62"/>
        <lane id="689.0_4" index="4" disallow="all" speed="13.89" length="204.58" width="3.66" shape="7757.90,2703.15 7733.47,2693.98 7709.76,2685.10 7685.65,2676.07 7661.77,2667.09 7637.78,2658.07 7613.79,2649.06 7589.72,2639.96 7566.40,2631.19" type="shoulder"/>
    </edge>
    <edge id="693.0" from="node_679_end" to="node_677_start" priority="-1" type="town">
        <lane id="693.0_0" index="0" disallow="all" speed="13.89" length="7.03" width="3.66" shape="7899.07,2772.06 7892.50,2769.55" type="shoulder"/>
        <lane id="693.0_1" index="1" speed="13.89" length="7.03" width="3.66" shape="7900.37,2768.64 7893.81,2766.13"/>
        <lane id="693.0_2" index="2" speed="13.89" length="7.03" width="3.66" shape="7901.68,2765.22 7895.12,2762.71"/>
        <lane id="693.0_3" index="3" speed="13.89" length="7.03" width="3.66" shape="7902.99,2761.80 7896.42,2759.29"/>
        <lane id="693.0_4" index="4" disallow="all" speed="13.89" length="7.03" width="3.66" shape="7904.30,2758.38 7897.73,2755.87" type="shoulder"/>
    </edge>
    <edge id="702.0" from="node_680_end" to="node_682_start" priority="-1" type="town">
        <lane id="702.0_0" index="0" disallow="all" speed="13.89" length="46.33" width="3.66" shape="7356.87,2567.89 7313.54,2551.49" type="shoulder"/>
        <lane id="702.0_1" index="1" speed="13.89" length="46.33" width="3.66" shape="7358.17,2564.47 7314.83,2548.07"/>
        <lane id="702.0_2" index="2" speed="13.89" length="46.33" width="3.66" shape="7359.46,2561.05 7316.13,2544.65"/>
        <lane id="702.0_3" index="3" speed="13.89" length="46.33" width="3.66" shape="7360.76,2557.62 7317.42,2541.23"/>
        <lane id="702.0_4" index="4" disallow="all" speed="13.89" length="46.33" width="3.66" shape="7362.05,2554.20 7318.72,2537.80" type="shoulder"/>
    </edge>
    <edge id="705.0" from="node_677_end" to="node_689_start" priority="-1" type="town">
        <lane id="705.0_0" index="0" disallow="all" speed="13.89" length="43.08" width="3.66" shape="7793.29,2732.23 7753.01,2716.95" type="shoulder"/>
        <lane id="705.0_1" index="1" speed="13.89" length="43.08" width="3.66" shape="7794.59,2728.81 7754.31,2713.53"/>
        <lane id="705.0_2" index="2" speed="13.89" length="43.08" width="3.66" shape="7795.89,2725.39 7755.61,2710.11"/>