<?xml version='1.0' encoding='utf-8'?>
<nodes>
    <node id="node_677_start" x="571325.5192616417" y="3260755.459804781" type="priority" />
    <node id="node_677_end" x="571226.5610170376" y="3260718.243336741" type="priority" />
    <node id="node_679_start" x="571430.6577999593" y="3260799.3623485756" type="priority" />
    <node id="node_679_end" x="571332.3724769135" y="3260758.082500113" type="priority" />
    <node id="node_680_start" x="570994.1870819322" y="3260630.7818059116" type="priority" />
    <node id="node_680_end" x="570790.1387537598" y="3260553.901242137" type="priority" />
    <node id="node_682_start" x="570746.507169161" y="3260537.3885658686" type="priority" />
    <node id="node_682_end" x="570389.8705607256" y="3260403.1797391484" type="priority" />
    <node id="node_689_start" x="571186.0022073352" y="3260702.8535238192" type="priority" />
    <node id="node_715_start" x="566654.9187874192" y="3259149.9879002245" type="priority" />
    <node id="node_715_end" x="566539.4272407442" y="3259112.5771339843" type="priority" />
    <node id="node_718_start" x="568374.6570768023" y="3259683.0538494224" type="priority" />
    <node id="node_719_end" x="565757.9909273899" y="3258859.292418528" type="priority" />
    <node id="node_722_end" x="564910.0481409895" y="3258547.165017379" type="priority" />
    <node id="node_723_start" x="569768.8652550743" y="3260169.3491629106" type="priority" />
    <node id="node_723_end" x="569716.4916043153" y="3260149.520836958" type="priority" />
    <node id="node_724_start" x="568892.2210588023" y="3259843.4352228" type="priority" />
    <node id="node_726_start" x="567116.52176305" y="3259293.89579044" type="priority" />
    <node id="node_730_start" x="570383.1475058364" y="3260421.386502596" type="priority" />
    <node id="node_731_end" x="569152.4488803375" y="3259964.117587317" type="priority" />
    <node id="node_732_start" x="566649.4720736973" y="3259167.2023041127" type="priority" />
    <node id="node_732_end" x="566535.3572846141" y="3259126.4551731157" type="priority" />
    <node id="node_733_start" x="567113.5445834614" y="3259304.3199798954" type="priority" />
    <node id="node_734_end" x="567706.5289584617" y="3259505.583773841" type="priority" />
    <node id="node_735_start" x="567226.793240687" y="3259357.743808021" type="priority" />
    <node id="node_735_end" x="567109.8448159159" y="3259316.9865391236" type="priority" />
    <node id="node_736_start" x="570543.1605502579" y="3260486.237704506" type="priority" />
    <node id="node_740_end" x="564217.8570834612" y="3258292.359042395" type="priority" />
    <node id="node_742_start" x="564200.2831990427" y="3258285.884817136" type="priority" />
    <node id="node_742_end" x="564193.5006381497" y="3258283.382724037" type="priority" />
    <node id="node_745_start" x="564772.6932741163" y="3258496.625253543" type="priority" />
    <node id="node_745_end" x="564766.0583548674" y="3258494.1799925817" type="priority" />
    <node id="node_748_end" x="563427.3042929682" y="3258001.3585093385" type="priority" />
    <node id="node_749_start" x="564565.7455111947" y="3258451.1081879046" type="priority" />
    <node id="node_856_end" x="569162.99091687" y="3259941.223826699" type="priority" />
    <node id="node_858_start" x="569159.1733226047" y="3259951.50323598" type="priority" />
    <node id="node_858_end" x="568887.8505508329" y="3259857.246543772" type="priority" />
    <node id="node_893_start" x="571623.3872752262" y="3260872.6784414393" type="priority" />
    <node id="node_893_end" x="571453.0960383003" y="3260808.202801433" type="priority" />
    <node id="node_894_start" x="571452.0053450123" y="3260810.900251601" type="priority" />
    <node id="node_894_end" x="571429.4939810758" y="3260802.4525758806" type="priority" />
    <node id="node_685_start" x="571629.9985513996" y="3260875.1282976996" type="priority" />
    <node id="junction_63" x="0.0" y="0.0" type="priority" />
    <node id="junction_1" x="0.0" y="0.0" type="priority" />
    <node id="junction_70" x="0.0" y="0.0" type="priority" />
    <node id="junction_2" x="0.0" y="0.0" type="priority" />
    <node id="junction_6" x="0.0" y="0.0" type="priority" />
    <node id="junction_9" x="0.0" y="0.0" type="priority" />
    <node id="junction_64" x="0.0" y="0.0" type="priority" />
    <node id="junction_10" x="0.0" y="0.0" type="priority" />
    <node id="junction_73" x="0.0" y="0.0" type="priority" />
    <node id="junction_11" x="0.0" y="0.0" type="priority" />
    <node id="junction_74" x="0.0" y="0.0" type="priority" />
    <node id="junction_77" x="0.0" y="0.0" type="priority" />
    <node id="junction_75" x="0.0" y="0.0" type="priority" />
    <node id="junction_3" x="0.0" y="0.0" type="priority" />
    <node id="junction_16" x="0.0" y="0.0" type="priority" />
    <node id="junction_78" x="0.0" y="0.0" type="priority" />
    <node id="junction_79" x="0.0" y="0.0" type="priority" />
    <node id="junction_17" x="0.0" y="0.0" type="priority" />
    <node id="junction_19" x="0.0" y="0.0" type="priority" />
    <node id="junction_18" x="0.0" y="0.0" type="priority" />
    <node id="junction_76" x="0.0" y="0.0" type="priority" />
    <node id="junction_12" x="0.0" y="0.0" type="priority" />
    <node id="junction_14" x="0.0" y="0.0" type="priority" />
    <node id="junction_84" x="0.0" y="0.0" type="priority" />
    <node id="junction_65" x="0.0" y="0.0" type="priority" />
    <node id="junction_85" x="0.0" y="0.0" type="priority" />
    <node id="junction_55" x="0.0" y="0.0" type="priority" />
    <node id="junction_86" x="0.0" y="0.0" type="priority" />
    <node id="junction_81" x="0.0" y="0.0" type="priority" />
    <node id="junction_21" x="0.0" y="0.0" type="priority" />
    <node id="junction_82" x="0.0" y="0.0" type="priority" />
    <node id="junction_22" x="0.0" y="0.0" type="priority" />
    <node id="junction_80" x="0.0" y="0.0" type="priority" />
    <node id="junction_20" x="0.0" y="0.0" type="priority" />
    <node id="junction_4" x="0.0" y="0.0" type="priority" />
    <node id="junction_23" x="0.0" y="0.0" type="priority" />
    <node id="junction_83" x="0.0" y="0.0" type="priority" />
    <node id="junction_66" x="0.0" y="0.0" type="priority" />
    <node id="junction_24" x="0.0" y="0.0" type="priority" />
    <node id="junction_88" x="0.0" y="0.0" type="priority" />
    <node id="junction_26" x="0.0" y="0.0" type="priority" />
    <node id="junction_27" x="0.0" y="0.0" type="priority" />
    <node id="junction_28" x="0.0" y="0.0" type="priority" />
    <node id="junction_91" x="0.0" y="0.0" type="priority" />
    <node id="junction_29" x="0.0" y="0.0" type="priority" />
    <node id="junction_92" x="0.0" y="0.0" type="priority" />
    <node id="junction_30" x="0.0" y="0.0" type="priority" />
    <node id="junction_31" x="0.0" y="0.0" type="priority" />
    <node id="junction_32" x="0.0" y="0.0" type="priority" />
    <node id="junction_96" x="0.0" y="0.0" type="priority" />
    <node id="junction_33" x="0.0" y="0.0" type="priority" />
    <node id="junction_98" x="0.0" y="0.0" type="priority" />
    <node id="junction_99" x="0.0" y="0.0" type="priority" />
    <node id="junction_100" x="0.0" y="0.0" type="priority" />
    <node id="junction_37" x="0.0" y="0.0" type="priority" />
    <node id="junction_36" x="0.0" y="0.0" type="priority" />
    <node id="junction_35" x="0.0" y="0.0" type="priority" />
    <node id="junction_97" x="0.0" y="0.0" type="priority" />
    <node id="junction_87" x="0.0" y="0.0" type="priority" />
    <node id="junction_89" x="0.0" y="0.0" type="priority" />
    <node id="junction_90" x="0.0" y="0.0" type="priority" />
    <node id="junction_93" x="0.0" y="0.0" type="priority" />
    <node id="junction_94" x="0.0" y="0.0" type="priority" />
    <node id="junction_95" x="0.0" y="0.0" type="priority" />
    <node id="junction_34" x="0.0" y="0.0" type="priority" />
    <node id="junction_38" x="0.0" y="0.0" type="priority" />
    <node id="junction_39" x="0.0" y="0.0" type="priority" />
    <node id="junction_40" x="0.0" y="0.0" type="priority" />
    <node id="junction_102" x="0.0" y="0.0" type="priority" />
    <node id="junction_103" x="0.0" y="0.0" type="priority" />
    <node id="junction_106" x="0.0" y="0.0" type="priority" />
    <node id="junction_42" x="0.0" y="0.0" type="priority" />
    <node id="junction_104" x="0.0" y="0.0" type="priority" />
    <node id="junction_41" x="0.0" y="0.0" type="priority" />
    <node id="junction_43" x="0.0" y="0.0" type="priority" />
    <node id="junction_44" x="0.0" y="0.0" type="priority" />
    <node id="junction_45" x="0.0" y="0.0" type="priority" />
    <node id="junction_108" x="0.0" y="0.0" type="priority" />
    <node id="junction_46" x="0.0" y="0.0" type="priority" />
    <node id="junction_68" x="0.0" y="0.0" type="priority" />
    <node id="junction_47" x="0.0" y="0.0" type="priority" />
    <node id="junction_49" x="0.0" y="0.0" type="priority" />
    <node id="junction_111" x="0.0" y="0.0" type="priority" />
    <node id="junction_112" x="0.0" y="0.0" type="priority" />
    <node id="junction_50" x="0.0" y="0.0" type="priority" />
    <node id="junction_113" x="0.0" y="0.0" type="priority" />
    <node id="junction_52" x="0.0" y="0.0" type="priority" />
    <node id="junction_51" x="0.0" y="0.0" type="priority" />
    <node id="junction_48" x="0.0" y="0.0" type="priority" />
    <node id="junction_117" x="0.0" y="0.0" type="priority" />
    <node id="junction_101" x="0.0" y="0.0" type="priority" />
    <node id="junction_105" x="0.0" y="0.0" type="priority" />
    <node id="junction_107" x="0.0" y="0.0" type="priority" />
    <node id="junction_109" x="0.0" y="0.0" type="priority" />
    <node id="junction_110" x="0.0" y="0.0" type="priority" />
    <node id="junction_114" x="0.0" y="0.0" type="priority" />
    <node id="junction_13" x="0.0" y="0.0" type="priority" />
    <node id="junction_7" x="0.0" y="0.0" type="priority" />
    <node id="junction_15" x="0.0" y="0.0" type="priority" />
    <node id="junction_119" x="0.0" y="0.0" type="priority" />
    <node id="junction_120" x="0.0" y="0.0" type="priority" />
    <node id="junction_56" x="0.0" y="0.0" type="priority" />
    <node id="junction_118" x="0.0" y="0.0" type="priority" />
    <node id="junction_121" x="0.0" y="0.0" type="priority" />
    <node id="junction_61" x="0.0" y="0.0" type="priority" />
    <node id="junction_122" x="0.0" y="0.0" type="priority" />
    <node id="junction_8" x="0.0" y="0.0" type="priority" />
    <node id="junction_62" x="0.0" y="0.0" type="priority" />
    <node id="junction_71" x="0.0" y="0.0" type="priority" />
    <node id="junction_57" x="0.0" y="0.0" type="priority" />
    <node id="junction_5" x="0.0" y="0.0" type="priority" />
    <node id="junction_123" x="0.0" y="0.0" type="priority" />
    <node id="junction_25" x="0.0" y="0.0" type="priority" />
    <node id="junction_59" x="0.0" y="0.0" type="priority" />
    <node id="junction_125" x="0.0" y="0.0" type="priority" />
    <node id="junction_126" x="0.0" y="0.0" type="priority" />
    <node id="junction_60" x="0.0" y="0.0" type="priority" />
    <node id="junction_72" x="0.0" y="0.0" type="priority" />
    <node id="junction_127" x="0.0" y="0.0" type="priority" />
    <node id="junction_116" x="565414.8460614287" y="3258733.140292451" type="priority" />
    <node id="junction_53" x="566982.8262308323" y="3259262.3792212615" type="priority" />
    <node id="junction_115" x="567980.5391077797" y="3259569.0521401707" type="priority" />
    <node id="j_merge_start_54" x="564439.3617549305" y="3258373.952526067" type="priority" />
    <node id="j_merge_end_54" x="564291.5014524322" y="3258319.465598179" type="priority" />
    <node id="junction_124" x="569340.9460899477" y="3260013.378495462" type="priority" />
    <node id="junction_58" x="570210.7838731004" y="3260340.9738764334" type="priority" />
</nodes>