<?xml version='1.0' encoding='utf-8'?>
<edges>
    <edge id="677.0" from="node_677_start" to="node_677_end" numLanes="5" speed="13.89" type="town" shape="571325.52,3260755.46 571300.58,3260746.10 571300.58,3260746.10 571275.80,3260736.81 571275.80,3260736.81 571251.19,3260727.49 571251.19,3260727.49 571226.56,3260718.24">
        <lane index="0" width="3.66" type="shoulder" disallow="all" />
        <lane index="1" width="3.66" />
        <lane index="2" width="3.66" />
        <lane index="3" width="3.66" />
        <lane index="4" width="3.66" type="shoulder" disallow="all" />
    </edge>
    <edge id="679.0" from="node_894_end" to="node_679_end" numLanes="5" speed="13.89" type="town" shape="571430.66,3260799.36 571422.16,3260794.76 571422.16,3260794.76 571414.35,3260790.04 571414.35,3260790.04 571404.60,3260785.25 571404.60,3260785.25 571392.13,3260780.59 571392.13,3260780.59 571372.08,3260773.06 571372.08,3260773.06 571352.25,3260765.58 571352.25,3260765.58 571332.37,3260758.08">
        <lane index="0" width="3.66" type="shoulder" disallow="all" />
        <lane index="1" width="3.66" />
        <lane index="2" width="3.66" />
        <lane index="3" width="3.66" />
        <lane index="4" width="3.66" type="shoulder" disallow="all" />
    </edge>
    <edge id="680.0" from="node_680_start" to="node_680_end" numLanes="5" speed="13.89" type="town" shape="570994.19,3260630.78 570960.06,3260618.04 570960.06,3260618.04 570926.04,3260605.31 570926.04,3260605.31 570892.07,3260592.55 570892.07,3260592.55 570858.12,3260579.58 570858.12,3260579.58 570824.14,3260566.74 570824.14,3260566.74 570790.14,3260553.90">
        <lane index="0" width="3.66" type="shoulder" disallow="all" />
        <lane index="1" width="3.66" />
        <lane index="2" width="3.66" />
        <lane index="3" width="3.66" />
        <lane index="4" width="3.66" type="shoulder" disallow="all" />
    </edge>
    <edge id="682.0" from="node_682_start" to="node_682_end" numLanes="5" speed="13.89" type="town" shape="570746.51,3260537.39 570719.53,3260527.30 570719.53,3260527.30 570676.39,3260511.15 570676.39,3260511.15 570654.33,3260502.85 570654.33,3260502.85 570628.04,3260492.94 570628.04,3260492.94 570608.27,3260485.52 570608.27,3260485.52 570590.00,3260478.55 570590.00,3260478.55 570568.02,3260470.24 570568.02,3260470.24 570548.14,3260462.75 570548.14,3260462.75 570534.19,3260457.56 570534.19,3260457.56 570502.73,3260445.66 570502.73,3260445.66 570469.10,3260433.02 570469.10,3260433.02 570442.65,3260423.06 570442.65,3260423.06 570405.39,3260409.03 570405.39,3260409.03 570389.87,3260403.18">
        <lane index="0" width="3.66" type="shoulder" disallow="all" />
        <lane index="1" width="3.66" />
        <lane index="2" width="3.66" />
        <lane index="3" width="3.66" />
        <lane index="4" width="3.66" type="shoulder" disallow="all" />
    </edge>
    <edge id="689.0" from="node_689_start" to="node_680_start" numLanes="5" speed="13.89" type="town" shape="571186.00,3260702.85 571161.41,3260693.62 571161.41,3260693.62 571137.70,3260684.74 571137.70,3260684.74 571113.59,3260675.72 571113.59,3260675.72 571089.71,3260666.74 571089.71,3260666.74 571065.72,3260657.72 571065.72,3260657.72 571041.74,3260648.71 571041.74,3260648.71 571017.67,3260639.61 571017.67,3260639.61 570994.19,3260630.78">
        <lane index="0" width="3.66" type="shoulder" disallow="all" />
        <lane index="1" width="3.66" />
        <lane index="2" width="3.66" />
        <lane index="3" width="3.66" />
        <lane index="4" width="3.66" type="shoulder" disallow="all" />
    </edge>
    <edge id="693.0" from="node_679_end" to="node_677_start" numLanes="5" speed="13.89" type="town" shape="571332.37,3260758.08 571325.52,3260755.46">
        <lane index="0" width="3.66" type="shoulder" disallow="all" />
        <lane index="1" width="3.66" />
        <lane index="2" width="3.66" />
        <lane index="3" width="3.66" />
        <lane index="4" width="3.66" type="shoulder" disallow="all" />
    </edge>
    <edge id="702.0" from="node_680_end" to="node_682_start" numLanes="5" speed="13.89" type="town" shape="570790.14,3260553.90 570746.51,3260537.39">
        <lane index="0" width="3.66" type="shoulder" disallow="all" />
        <lane index="1" width="3.66" />
        <lane index="2" width="3.66" />
        <lane index="3" width="3.66" />
        <lane index="4" width="3.66" type="shoulder" disallow="all" />
    </edge>
    <edge id="705.0" from="node_677_end" to="node_689_start" numLanes="5" speed="13.89" type="town" shape="571226.56,3260718.24 571186.00,3260702.85">
        <lane index="0" width="3.66" type="shoulder" disallow="all" />
        <lane index="1" width="3.66" />
        <lane index="2" width="3.66" />
        <lane index="3" width="3.66" />
        <lane index="4" width="3.66" type="shoulder" disallow="all" />
    </edge>
    <edge id="715.0" from="node_715_start" to="node_715_end" numLanes="5" speed="13.89" type="town" shape="566654.92,3259149.99 566644.74,3259146.65 566644.74,3259146.65 566626.07,3259140.40 566626.07,3259140.40 566592.69,3259129.46 566592.69,3259129.46 566563.85,3259120.16 566563.85,3259120.16 566539.43,3259112.58">
        <lane index="0" width="3.66" />
        <lane index="1" width="3.66" />
        <lane index="2" width="3.66" />
        <lane index="3" width="3.66" />
        <lane index="4" width="3.66" type="shoulder" disallow="all" />
    </edge>
    <edge id="716.0" from="junction_53" to="node_715_start" numLanes="6" speed="13.89" type="town" shape="566823.04,3259203.22 566792.17,3259193.75 566792.17,3259193.75 566716.50,3259170.20 566716.50,3259170.20 566654.92,3259149.99">
        <lane index="0" width="3.66" />
        <lane index="1" width="3.66" />
        <lane index="2" width="3.66" />
        <lane index="3" width="3.66" />
        <lane index="4" width="3.66" />
        <lane index="5" width="3.66" type="shoulder" disallow="all" />
    </edge>
    <edge id="717.0" from="node_682_end" to="junction_58" numLanes="4" speed="13.89" type="town" shape="570389.87,3260403.18 570370.79,3260395.98 570370.79,3260395.98 570343.52,3260385.63 570343.52,3260385.63 570329.07,3260380.26 570329.07,3260380.26 570321.25,3260377.30 570321.25,3260377.30 570308.40,3260372.46 570308.40,3260372.46 570297.81,3260368.48 570297.81,3260368.48 570289.75,3260365.46 570289.75,3260365.46 570280.83,3260362.09 570280.83,3260362.09 570268.73,3260357.55 570268.73,3260357.55 570255.69,3260352.61 570255.69,3260352.61 570235.45,3260345.01">
        <lane index="0" width="3.66" />
        <lane index="1" width="3.66" />
        <lane index="2" width="3.66" />
        <lane index="3" width="3.66" type="shoulder" disallow="all" />
    </edge>
    <edge id="718.0" from="node_718_start" to="junction_115" numLanes="5" speed="13.89" type="town" shape="568374.66,3259683.05 568366.12,3259680.28 568366.12,3259680.28 568346.78,3259673.92 568346.78,3259673.92 568335.78,3259670.59 568335.78,3259670.59 568322.08,3259666.24 568322.08,3259666.24 568302.11,3259659.71 568302.11,3259659.71 568292.95,3259657.71 568292.95,3259657.71 568292.78,3259657.52 568292.78,3259657.52 568292.61,3259657.28 568292.61,3259657.28 568284.00,3259655.11 568284.00,3259655.11 568280.47,3259654.13 568280.47,3259654.13 568275.41,3259652.34 568275.41,3259652.34 568268.14,3259649.64 568268.14,3259649.64 568259.02,3259646.76 568259.02,3259646.76 568243.17,3259641.92 568243.17,3259641.92 568223.21,3259635.77 568223.21,3259635.77 568207.58,3259631.10 568207.58,3259631.10 568205.85,3259630.65 568205.85,3259630.65 568201.40,3259629.45 568201.40,3259629.45 568191.43,3259626.41 568191.43,3259626.41 568188.16,3259625.41 568188.16,3259625.41 568176.77,3259622.06 568176.77,3259622.06 568157.50,3259616.20 568157.50,3259616.20 568134.81,3259609.10 568134.81,3259609.10 568115.61,3259603.27 568115.61,3259603.27 568109.62,3259601.44 568109.62,3259601.44 568098.33,3259598.16 568098.33,3259598.16 568077.74,3259591.75 568077.74,3259591.75 568062.93,3259587.22">
        <lane index="0" width="3.66" />
        <lane index="1" width="3.66" />
        <lane index="2" width="3.66" />
        <lane index="3" width="3.66" />
        <lane index="4" width="3.66" type="shoulder" disallow="all" />
    </edge>
    <edge id="719.0" from="node_715_end" to="node_719_end" numLanes="5" speed="13.89" type="town" shape="566539.43,3259112.58 566525.44,3259108.24 566525.44,3259108.24 566477.72,3259093.49 566477.72,3259093.49 566437.90,3259081.26 566437.90,3259081.26 566379.92,3259063.36 566379.92,3259063.36 566318.82,3259044.35 566318.82,3259044.35 566263.02,3259027.11 566263.02,3259027.11 566213.59,3259011.91 566213.59,3259011.91 566145.33,3258990.78 566145.33,3258990.78 566073.22,3258968.62 566073.22,3258968.62 566011.56,3258949.05 566011.56,3258949.05 565964.09,3258933.29 565964.09,3258933.29 565907.28,3258913.70 565907.28,3258913.70 565839.42,3258889.20 565839.42,3258889.20 565783.16,3258868.49 565783.16,3258868.49 565757.99,3258859.29">
        <lane index="0" width="3.66" />
        <lane index="1" width="3.66" />
        <lane index="2" width="3.66" />
        <lane index="3" width="3.66" />
        <lane index="4" width="3.66" type="shoulder" disallow="all" />
    </edge>
    <edge id="721.0" from="node_719_end" to="junction_116" numLanes="5" speed="13.89" type="town" shape="565757.99,3258859.29 565754.51,3258858.02 565754.51,3258858.02 565719.15,3258845.04 565719.15,3258845.04 565677.29,3258829.60 565677.29,3258829.60 565674.96,3258828.73 565674.96,3258828.73 565670.40,3258827.40">
        <lane index="0" width="3.66" />
        <lane index="1" width="3.66" />
        <lane index="2" width="3.66" />
        <lane index="3" width="3.66" />
        <lane index="4" width="3.66" type="shoulder" disallow="all" />
    </edge>
    <edge id="722.0" from="junction_116" to="node_722_end" numLanes="5" speed="13.89" type="town" shape="565159.29,3258638.88 565154.40,3258637.07 565154.40,3258637.07 565133.81,3258629.52 565133.81,3258629.52 565104.78,3258618.86 565104.78,3258618.86 565079.19,3258609.42 565079.19,3258609.42 565053.58,3258600.00 565053.58,3258600.00 565008.17,3258583.34 565008.17,3258583.34 564952.58,3258562.77 564952.58,3258562.77 564910.05,3258547.17">
        <lane index="0" width="3.66" type="shoulder" disallow="all" />
        <lane index="1" width="3.66" />
        <lane index="2" width="3.66" />
        <lane index="3" width="3.66" />
        <lane index="4" width="3.66" type="shoulder" disallow="all" />
    </edge>
    <edge id="723.0" from="node_723_start" to="node_723_end" numLanes="5" speed="13.89" type="town" shape="569768.87,3260169.35 569752.15,3260163.02 569752.15,3260163.02 569732.20,3260155.47 569732.20,3260155.47 569716.49,3260149.52">
        <lane index="0" width="3.66" type="shoulder" disallow="all" />
        <lane index="1" width="3.66" />
        <lane index="2" width="3.66" />
        <lane index="3" width="3.66" />
        <lane index="4" width="3.66" type="shoulder" disallow="all" />
    </edge>
    <edge id="724.0" from="node_724_start" to="node_718_start" numLanes="5" speed="13.89" type="town" shape="568892.22,3259843.44 568885.82,3259841.42 568885.82,3259841.42 568863.20,3259834.26 568863.20,3259834.26 568855.54,3259831.85 568855.54,3259831.85 568835.10,3259825.76 568835.10,3259825.76 568817.31,3259820.47 568817.31,3259820.47 568807.57,3259817.55 568807.57,3259817.55 568786.87,3259811.54 568786.87,3259811.54 568768.05,3259806.10 568768.05,3259806.10 568747.02,3259799.58 568747.02,3259799.58 568717.24,3259790.38 568717.24,3259790.38 568689.61,3259781.88 568689.61,3259781.88 568661.89,3259773.36 568661.89,3259773.36 568645.03,3259768.07 568645.03,3259768.07 568613.06,3259758.27 568613.06,3259758.27 568586.15,3259749.88 568586.15,3259749.88 568557.52,3259741.08 568557.52,3259741.08 568529.92,3259732.48 568529.92,3259732.48 568491.92,3259720.70 568491.92,3259720.70 568455.46,3259709.33 568455.46,3259709.33 568426.44,3259699.84 568426.44,3259699.84 568393.77,3259689.27 568393.77,3259689.27 568374.66,3259683.05">
        <lane index="0" width="3.66" />
        <lane index="1" width="3.66" />
        <lane index="2" width="3.66" />
        <lane index="3" width="3.66" />
        <lane index="4" width="3.66" type="shoulder" disallow="all" />
    </edge>
    <edge id="726.0" from="node_726_start" to="junction_53" numLanes="4" speed="13.89" type="town" shape="567116.52,3259293.90 567103.09,3259289.74 567103.09,3259289.74 567072.09,3259280.12 567072.09,3259280.12 567039.62,3259270.06">
        <lane index="0" width="3.66" />
        <lane index="1" width="3.66" />
        <lane index="2" width="3.66" />
        <lane index="3" width="3.66" type="shoulder" disallow="all" />
    </edge>
    <edge id="729.0" from="junction_115" to="node_726_start" numLanes="5" speed="13.89" type="town" shape="567942.71,3259550.08 567896.26,3259535.74 567896.26,3259535.74 567845.24,3259519.95 567845.24,3259519.95 567795.95,3259504.69 567795.95,3259504.69 567751.04,3259490.94 567751.04,3259490.94 567729.73,3259484.38 567729.73,3259484.38 567708.77,3259477.83 567708.77,3259477.83 567668.02,3259465.31 567668.02,3259465.31 567635.36,3259455.22 567635.36,3259455.22 567592.92,3259442.11 567592.92,3259442.11 567540.18,3259425.77 567540.18,3259425.77 567495.13,3259411.81 567495.13,3259411.81 567479.73,3259407.09 567479.73,3259407.09 567471.18,3259404.91 567471.18,3259404.91 567470.90,3259404.60 567470.90,3259404.60 567470.66,3259404.31 567470.66,3259404.31 567457.91,3259400.46 567457.91,3259400.46 567435.54,3259393.51 567435.54,3259393.51 567398.19,3259381.85 567398.19,3259381.85 567352.40,3259367.67 567352.40,3259367.67 567330.35,3259360.83 567330.35,3259360.83 567307.99,3259353.92 567307.99,3259353.92 567288.34,3259347.83 567288.34,3259347.83 567253.05,3259336.89 567253.05,3259336.89 567218.48,3259326.23 567218.48,3259326.23 567179.68,3259314.15 567179.68,3259314.15 567145.22,3259303.53 567145.22,3259303.53 567130.53,3259298.95 567130.53,3259298.95 567130.33,3259298.85 567130.33,3259298.85 567130.35,3259298.57 567130.35,3259298.57 567130.39,3259298.22 567130.39,3259298.22 567122.19,3259295.65 567122.19,3259295.65 567116.52,3259293.90">
        <lane index="0" width="3.66" type="shoulder" disallow="all" />
        <lane index="1" width="3.66" />
        <lane index="2" width="3.66" />
        <lane index="3" width="3.66" />
        <lane index="4" width="3.66" type="shoulder" disallow="all" />
    </edge>
    <edge id="730.0" from="node_730_start" to="junction_58" numLanes="1" speed="13.89" type="town" shape="570383.15,3260421.39 570369.90,3260416.40 570369.90,3260416.40 570357.85,3260411.72 570357.85,3260411.72 570341.83,3260405.37 570341.83,3260405.37 570321.95,3260397.36 570321.95,3260397.36 570304.69,3260390.29 570304.69,3260390.29 570283.64,3260381.31 570283.64,3260381.31 570262.48,3260372.18 570262.48,3260372.18 570247.83,3260365.76 570247.83,3260365.76 570238.72,3260362.20 570238.72,3260362.20 570230.55,3260359.00">
        <lane index="0" width="3.66" />
    </edge>
    <edge id="731.0" from="junction_124" to="node_731_end" numLanes="1" speed="13.89" type="town" shape="569314.68,3260013.99 569286.15,3260004.49 569286.15,3260004.49 569265.85,3259998.43 569265.85,3259998.43 569249.08,3259993.21 569249.08,3259993.21 569242.85,3259991.37 569242.85,3259991.37 569222.63,3259985.43 569222.63,3259985.43 569204.93,3259980.59 569204.93,3259980.59 569183.34,3259973.87 569183.34,3259973.87 569152.45,3259964.12">
        <lane index="0" width="3.66" />
    </edge>
    <edge id="732.0" from="node_715_start" to="node_715_end" numLanes="1" speed="13.89" type="town" shape="566649.47,3259167.20 566535.36,3259126.46">
        <lane index="0" width="3.66" />
    </edge>
    <edge id="733.0" from="node_726_start" to="junction_53" numLanes="1" speed="13.89" type="town" shape="567113.54,3259304.32 567035.53,3259284.01">
        <lane index="0" width="3.66" />
    </edge>
    <edge id="734.0" from="junction_115" to="node_734_end" numLanes="1" speed="13.89" type="town" shape="567935.98,3259569.86 567924.88,3259567.16 567924.88,3259567.16 567907.05,3259562.50 567907.05,3259562.50 567894.79,3259559.23 567894.79,3259559.23 567873.11,3259553.34 567873.11,3259553.34 567858.52,3259549.23 567858.52,3259549.23 567843.83,3259545.06 567843.83,3259545.06 567832.58,3259541.74 567832.58,3259541.74 567822.00,3259538.55 567822.00,3259538.55 567807.31,3259534.21 567807.31,3259534.21 567787.87,3259528.27 567787.87,3259528.27 567773.54,3259524.02 567773.54,3259524.02 567756.92,3259519.21 567756.92,3259519.21 567739.92,3259514.44 567739.92,3259514.44 567724.44,3259510.21 567724.44,3259510.21 567712.92,3259507.13 567712.92,3259507.13 567706.53,3259505.58">
        <lane index="0" width="3.66" />
    </edge>
    <edge id="735.0" from="node_735_start" to="node_735_end" numLanes="1" speed="13.89" type="town" shape="567226.79,3259357.74 567189.15,3259343.93 567189.15,3259343.93 567168.58,3259336.61 567168.58,3259336.61 567153.65,3259331.52 567153.65,3259331.52 567143.45,3259328.14 567143.45,3259328.14 567129.90,3259323.66 567129.90,3259323.66 567122.33,3259321.14 567122.33,3259321.14 567112.14,3259317.75 567112.14,3259317.75 567109.84,3259316.99">
        <lane index="0" width="3.66" />
    </edge>
    <edge id="736.0" from="node_736_start" to="node_730_start" numLanes="1" speed="13.89" type="town" shape="570543.16,3260486.24 570528.93,3260479.88 570528.93,3260479.88 570512.87,3260472.65 570512.87,3260472.65 570482.65,3260459.88 570482.65,3260459.88 570461.33,3260451.58 570461.33,3260451.58 570420.80,3260436.18 570420.80,3260436.18 570383.15,3260421.39">
        <lane index="0" width="3.66" />
    </edge>
    <edge id="737.0" from="node_735_end" to="junction_53" numLanes="1" speed="13.89" type="town" shape="567109.84,3259316.99 567103.35,3259314.82 567103.35,3259314.82 567095.25,3259312.18 567095.25,3259312.18 567084.63,3259308.70 567084.63,3259308.70 567076.18,3259305.96 567076.18,3259305.96 567067.08,3259303.01 567067.08,3259303.01 567058.17,3259300.16 567058.17,3259300.16 567047.92,3259296.91 567047.92,3259296.91 567036.92,3259293.42 567036.92,3259293.42 567033.12,3259292.23">
        <lane index="0" width="3.66" />
    </edge>
    <edge id="740.0" from="j_merge_end_54" to="node_740_end" numLanes="6" speed="13.89" type="town" shape="564291.50,3258319.47 564260.88,3258308.19 564260.88,3258308.19 564217.86,3258292.36">
        <lane index="0" width="3.66" type="shoulder" disallow="all" />
        <lane index="1" width="3.66" />
        <lane index="2" width="3.66" />
        <lane index="3" width="3.66" />
        <lane index="4" width="3.66" />
        <lane index="5" width="3.66" type="shoulder" disallow="all" />
    </edge>
    <edge id="742.0" from="node_742_start" to="node_742_end" numLanes="6" speed="13.89" type="town" shape="564200.28,3258285.88 564196.10,3258284.35 564196.10,3258284.35 564193.50,3258283.38">
        <lane index="0" width="3.66" type="shoulder" disallow="all" />
        <lane index="1" width="3.66" />
        <lane index="2" width="3.66" />
        <lane index="3" width="3.66" />
        <lane index="4" width="3.66" />
        <lane index="5" width="3.66" type="shoulder" disallow="all" />
    </edge>
    <edge id="744.0" from="node_740_end" to="node_742_start" numLanes="6" speed="13.89" type="town" shape="564217.86,3258292.36 564208.44,3258288.87 564208.44,3258288.87 564200.28,3258285.88">
        <lane index="0" width="3.66" type="shoulder" disallow="all" />
        <lane index="1" width="3.66" />
        <lane index="2" width="3.66" />
        <lane index="3" width="3.66" />
        <lane index="4" width="3.66" />
        <lane index="5" width="3.66" type="shoulder" disallow="all" />
    </edge>
    <edge id="745.0" from="node_745_start" to="node_745_end" numLanes="5" speed="13.89" type="town" shape="564772.69,3258496.63 564766.06,3258494.18">
        <lane index="0" width="3.66" type="shoulder" disallow="all" />
        <lane index="1" width="3.66" />
        <lane index="2" width="3.66" />
        <lane index="3" width="3.66" />
        <lane index="4" width="3.66" type="shoulder" disallow="all" />
    </edge>
    <edge id="746.0" from="node_722_end" to="node_745_start" numLanes="5" speed="13.89" type="town" shape="564910.05,3258547.17 564882.50,3258537.06 564882.50,3258537.06 564818.05,3258513.23 564818.05,3258513.23 564772.69,3258496.63">
        <lane index="0" width="3.66" type="shoulder" disallow="all" />
        <lane index="1" width="3.66" />
        <lane index="2" width="3.66" />
        <lane index="3" width="3.66" />
        <lane index="4" width="3.66" type="shoulder" disallow="all" />
    </edge>
    <edge id="747.0" from="node_745_end" to="j_merge_start_54" numLanes="5" speed="13.89" type="town" shape="564766.06,3258494.18 564637.73,3258446.89 564637.73,3258446.89 564617.10,3258439.30 564617.10,3258439.30 564593.16,3258430.52 564593.16,3258430.52 564568.95,3258421.59 564568.95,3258421.59 564546.33,3258413.27 564546.33,3258413.27 564500.64,3258396.46 564500.64,3258396.46 564464.17,3258383.09 564464.17,3258383.09 564439.36,3258373.95">
        <lane index="0" width="3.66" type="shoulder" disallow="all" />
        <lane index="1" width="3.66" />
        <lane index="2" width="3.66" />
        <lane index="3" width="3.66" />
        <lane index="4" width="3.66" type="shoulder" disallow="all" />
    </edge>
    <edge id="748.0" from="node_742_end" to="node_748_end" numLanes="6" speed="13.89" type="town" shape="564193.50,3258283.38 564185.17,3258280.34 564185.17,3258280.34 564174.10,3258276.23 564174.10,3258276.23 564162.42,3258271.94 564162.42,3258271.94 564155.05,3258269.23 564155.05,3258269.23 564140.17,3258263.73 564140.17,3258263.73 564135.95,3258262.18 564135.95,3258262.18 564129.46,3258260.15 564129.46,3258260.15 564125.32,3258258.85 564125.32,3258258.85 564123.70,3258258.35 564123.70,3258258.35 564121.37,3258257.48 564121.37,3258257.48 564117.45,3258255.80 564117.45,3258255.80 564110.85,3258252.98 564110.85,3258252.98 564109.69,3258252.47 564109.69,3258252.47 564108.17,3258251.92 564108.17,3258251.92 564104.91,3258250.72 564104.91,3258250.72 564096.61,3258247.69 564096.61,3258247.69 564083.20,3258242.75 564083.20,3258242.75 564067.21,3258236.85 564067.21,3258236.85 564046.92,3258229.40 564046.92,3258229.40 564026.48,3258221.86 564026.48,3258221.86 564003.92,3258213.57 564003.92,3258213.57 563983.17,3258205.97 563983.17,3258205.97 563956.63,3258196.19 563956.63,3258196.19 563914.81,3258180.83 563914.81,3258180.83 563860.75,3258160.95 563860.75,3258160.95 563823.46,3258147.23 563823.46,3258147.23 563801.82,3258139.25 563801.82,3258139.25 563799.19,3258138.40 563799.19,3258138.40 563793.14,3258136.58 563793.14,3258136.58 563790.88,3258135.76 563790.88,3258135.76 563788.56,3258134.76 563788.56,3258134.76 563784.53,3258132.98 563784.53,3258132.98 563782.99,3258132.30 563782.99,3258132.30 563781.35,3258131.66 563781.35,3258131.66 563769.27,3258127.22 563769.27,3258127.22 563749.95,3258120.09 563749.95,3258120.09 563727.10,3258111.70 563727.10,3258111.70 563696.33,3258100.36 563696.33,3258100.36 563674.84,3258092.45 563674.84,3258092.45 563642.54,3258080.57 563642.54,3258080.57 563619.14,3258071.92 563619.14,3258071.92 563617.13,3258071.16 563617.13,3258071.16 563615.52,3258070.68 563615.52,3258070.68 563613.19,3258070.00 563613.19,3258070.00 563609.76,3258069.01 563609.76,3258069.01 563608.65,3258068.68 563608.65,3258068.68 563606.45,3258067.82 563606.45,3258067.82 563600.33,3258065.09 563600.33,3258065.09 563598.63,3258064.34 563598.63,3258064.34 563582.77,3258058.53 563582.77,3258058.53 563539.79,3258042.90 563539.79,3258042.90 563508.55,3258031.37 563508.55,3258031.37 563467.87,3258016.41 563467.87,3258016.41 563437.91,3258005.29 563437.91,3258005.29 563427.30,3258001.36">
        <lane index="0" width="3.66" type="shoulder" disallow="all" />
        <lane index="1" width="3.66" />
        <lane index="2" width="3.66" />
        <lane index="3" width="3.66" />
        <lane index="4" width="3.66" />
        <lane index="5" width="3.66" type="shoulder" disallow="all" />
    </edge>
    <edge id="749.0" from="node_749_start" to="j_merge_start_54" numLanes="1" speed="13.89" type="town" shape="564565.75,3258451.11 564525.39,3258433.40 564525.39,3258433.40 564496.92,3258421.04 564496.92,3258421.04 564478.24,3258413.28 564478.24,3258413.28 564459.64,3258405.84 564459.64,3258405.84 564433.82,3258395.36 564433.82,3258395.36 564431.67,3258394.49">
        <lane index="0" width="3.66" />
    </edge>
    <edge id="856.0" from="junction_124" to="node_856_end" numLanes="4" speed="13.89" type="town" shape="569319.70,3260000.13 569304.69,3259994.51 569304.69,3259994.51 569291.13,3259989.41 569291.13,3259989.41 569280.70,3259985.48 569280.70,3259985.48 569253.55,3259975.31 569253.55,3259975.31 569222.05,3259963.41 569222.05,3259963.41 569183.91,3259949.12 569183.91,3259949.12 569162.99,3259941.22">
        <lane index="0" width="3.66" />
        <lane index="1" width="3.66" />
        <lane index="2" width="3.66" />
        <lane index="3" width="3.66" type="shoulder" disallow="all" />
    </edge>
    <edge id="857.0" from="node_856_end" to="node_724_start" numLanes="4" speed="13.89" type="town" shape="569162.99,3259941.22 569120.90,3259925.34 569120.90,3259925.34 569089.01,3259913.28 569089.01,3259913.28 569045.48,3259896.93 569045.48,3259896.93 569007.28,3259882.99 569007.28,3259882.99 568994.92,3259878.55 568994.92,3259878.55 568989.74,3259876.77 568989.74,3259876.77 568979.21,3259873.65 568979.21,3259873.65 568970.04,3259869.93 568970.04,3259869.93 568965.77,3259868.26 568965.77,3259868.26 568958.99,3259865.90 568958.99,3259865.90 568940.08,3259859.30 568940.08,3259859.30 568909.30,3259848.82 568909.30,3259848.82 568892.22,3259843.44">
        <lane index="0" width="3.66" />
        <lane index="1" width="3.66" />
        <lane index="2" width="3.66" />
        <lane index="3" width="3.66" type="shoulder" disallow="all" />
    </edge>
    <edge id="858.0" from="node_856_end" to="node_724_start" numLanes="1" speed="13.89" type="town" shape="569159.17,3259951.50 569125.07,3259939.66 569125.07,3259939.66 569091.49,3259927.71 569091.49,3259927.71 569057.59,3259915.69 569057.59,3259915.69 569024.12,3259903.81 569024.12,3259903.81 568993.72,3259893.02 568993.72,3259893.02 568963.45,3259882.36 568963.45,3259882.36 568924.90,3259869.34 568924.90,3259869.34 568887.85,3259857.25">
        <lane index="0" width="3.66" />
    </edge>
    <edge id="859.0" from="node_723_end" to="junction_124" numLanes="5" speed="13.89" type="town" shape="569716.49,3260149.52 569697.20,3260142.32 569697.20,3260142.32 569669.15,3260131.77 569669.15,3260131.77 569655.74,3260126.69 569655.74,3260126.69 569647.30,3260123.52 569647.30,3260123.52 569635.53,3260119.12 569635.53,3260119.12 569630.03,3260117.00 569630.03,3260117.00 569622.26,3260114.08 569622.26,3260114.08 569606.87,3260108.23 569606.87,3260108.23 569589.15,3260101.60 569589.15,3260101.60 569579.77,3260098.05 569579.77,3260098.05 569569.34,3260094.17 569569.34,3260094.17 569558.34,3260090.02 569558.34,3260090.02 569545.71,3260085.18 569545.71,3260085.18 569532.61,3260080.26 569532.61,3260080.26 569523.18,3260076.74 569523.18,3260076.74 569509.67,3260071.62 569509.67,3260071.62 569501.81,3260068.64 569501.81,3260068.64 569493.79,3260065.66 569493.79,3260065.66 569479.92,3260060.41 569479.92,3260060.41 569466.33,3260055.24 569466.33,3260055.24 569460.50,3260053.12 569460.50,3260053.12 569439.51,3260045.23 569439.51,3260045.23 569422.16,3260038.69 569422.16,3260038.69 569404.35,3260032.00 569404.35,3260032.00 569388.46,3260026.02">
        <lane index="0" width="3.66" type="shoulder" disallow="all" />
        <lane index="1" width="3.66" />
        <lane index="2" width="3.66" />
        <lane index="3" width="3.66" />
        <lane index="4" width="3.66" type="shoulder" disallow="all" />
    </edge>
    <edge id="863.0" from="junction_58" to="node_723_start" numLanes="5" speed="13.89" type="town" shape="570166.36,3260318.91 570121.51,3260302.06 570121.51,3260302.06 570076.87,3260285.30 570076.87,3260285.30 570034.70,3260269.40 570034.70,3260269.40 569989.86,3260252.42 569989.86,3260252.42 569945.71,3260235.84 569945.71,3260235.84 569901.64,3260219.22 569901.64,3260219.22 569857.45,3260202.72 569857.45,3260202.72 569813.32,3260186.20 569813.32,3260186.20 569768.87,3260169.35">
        <lane index="0" width="3.66" type="shoulder" disallow="all" />
        <lane index="1" width="3.66" />
        <lane index="2" width="3.66" />
        <lane index="3" width="3.66" />
        <lane index="4" width="3.66" type="shoulder" disallow="all" />
    </edge>
    <edge id="893.0" from="node_893_start" to="node_894_start" numLanes="4" speed="13.89" type="town" shape="571623.39,3260872.68 571602.96,3260865.20 571602.96,3260865.20 571571.14,3260852.96 571571.14,3260852.96 571544.44,3260842.85 571544.44,3260842.85 571500.63,3260826.27 571500.63,3260826.27 571479.92,3260818.29 571479.92,3260818.29 571453.10,3260808.20">
        <lane index="0" width="3.66" type="shoulder" disallow="all" />
        <lane index="1" width="3.66" />
        <lane index="2" width="3.66" />
        <lane index="3" width="3.66" type="shoulder" disallow="all" />
    </edge>
    <edge id="894.0" from="node_893_end" to="node_679_start" numLanes="3" speed="13.89" type="town" shape="571452.01,3260810.90 571439.91,3260806.31 571439.91,3260806.31 571429.49,3260802.45">
        <lane index="0" width="3.66" type="shoulder" disallow="all" />
        <lane index="1" width="3.66" />
        <lane index="2" width="3.66" />
    </edge>
    <edge id="merge_zone_54" from="j_merge_start_54" to="j_merge_end_54" numLanes="6" speed="13.89" name="Merge zone 54" type="highway_merge" shape="564390.98,3258356.16 564390.98,3258356.16 564363.57,3258346.00 564363.57,3258346.00 564335.72,3258335.75">
        <lane index="0" width="3.66" />