<?xml version="1.0" encoding="UTF-8"?>

<!-- generated on 2025-10-19 17:33:42 by Eclipse SUMO netconvert Version 1.23.1
<netconvertConfiguration xmlns:xsi="http://www.w3.org/2001/XMLSchema-instance" xsi:noNamespaceSchemaLocation="http://sumo.dlr.de/xsd/netconvertConfiguration.xsd">

    <input>
        <node-files value="/home/sdai/harry/TeraSim/jupiter/wb/jupiter_wb_tiles/tile_0075/tile_0075.nod.xml"/>
        <edge-files value="/home/sdai/harry/TeraSim/jupiter/wb/jupiter_wb_tiles/tile_0075/tile_0075.edg.xml"/>
        <connection-files value="/home/sdai/harry/TeraSim/jupiter/wb/jupiter_wb_tiles/tile_0075/tile_0075.con.xml"/>
    </input>

    <output>
        <output-file value="/home/sdai/harry/TeraSim/jupiter/wb/jupiter_wb_tiles/tile_0075/tile_0075.net.xml"/>
        <output.street-names value="true"/>
        <output.original-names value="true"/>
    </output>

    <processing>
        <geometry.remove value="false"/>
        <geometry.min-dist value="0.5"/>
        <edges.join value="false"/>
    </processing>

    <junctions>
        <no-internal-links value="false"/>
        <no-turnarounds value="true"/>
        <junctions.join value="true"/>
        <junctions.join-dist value="10"/>
        <junctions.corner-detail value="5"/>
        <junctions.internal-link-detail value="5"/>
        <junctions.limit-turn-speed value="5.5"/>
        <rectangular-lane-cut value="true"/>
        <check-lane-foes.all value="true"/>
    </junctions>

</netconvertConfiguration>
-->

<net version="1.20" junctionCornerDetail="5" junctionLinkDetail="5" rectangularLaneCut="true" limitTurnSpeed="5.50" checkLaneFoesAll="1" xmlns:xsi="http://www.w3.org/2001/XMLSchema-instance" xsi:noNamespaceSchemaLocation="http://sumo.dlr.de/xsd/net_file.xsd">

    <location netOffset="-653967.35,-3282069.49" convBoundary="0.00,0.00,14422.01,3252.08" origBoundary="0.00,0.00,668389.36,3285321.57" projParameter="!"/>

    <edge id=":junction_29_0" function="internal">
        <lane id=":junction_29_0_0" index="0" speed="13.89" length="27.18" width="3.66" shape="10048.50,1268.07 10044.20,1266.92 10038.46,1265.37 10031.11,1263.74 10021.96,1262.39"/>
    </edge>
    <edge id=":junction_29_1" function="internal">
        <lane id=":junction_29_1_0" index="0" speed="13.89" length="27.36" width="3.66" shape="10049.56,1261.76 10022.36,1258.75"/>
        <lane id=":junction_29_1_1" index="1" speed="13.89" length="27.36" width="3.66" shape="10049.96,1258.12 10022.76,1255.11"/>
    </edge>
    <edge id=":junction_92_0" function="internal">
        <lane id=":junction_92_0_0" index="0" speed="13.89" length="33.26" width="3.66" shape="10764.56,1343.80 10753.78,1342.97 10744.23,1342.78 10736.54,1342.88 10731.33,1342.93"/>
    </edge>
    <edge id=":junction_92_1" function="internal">
        <lane id=":junction_92_1_0" index="0" speed="13.89" length="33.02" width="3.66" shape="10764.96,1340.16 10732.13,1336.63"/>
        <lane id=":junction_92_1_1" index="1" speed="13.89" length="33.02" width="3.66" shape="10765.37,1336.52 10732.53,1332.99"/>
    </edge>
    <edge id=":node_373_end_0" function="internal">
        <lane id=":node_373_end_0_0" index="0" speed="13.89" length="7.79" width="3.66" shape="10853.24,1353.53 10845.54,1352.36"/>
    </edge>
    <edge id=":node_373_end_1" function="internal">
        <lane id=":node_373_end_1_0" index="0" speed="13.89" length="8.09" width="3.66" shape="10853.24,1353.53 10845.31,1352.05"/>
        <lane id=":node_373_end_1_1" index="1" speed="13.89" length="8.09" width="3.66" shape="10853.93,1349.93 10845.96,1348.45"/>
    </edge>
    <edge id=":node_374_start_0" function="internal">
        <lane id=":node_374_start_0_0" index="0" speed="13.89" length="3.15" width="3.66" shape="10776.16,1341.48 10773.04,1341.10"/>
        <lane id=":node_374_start_0_1" index="1" speed="13.89" length="3.15" width="3.66" shape="10776.61,1337.85 10773.49,1337.46"/>
    </edge>
    <edge id=":node_374_start_2" function="internal">
        <lane id=":node_374_start_2_0" index="0" speed="13.89" length="3.09" width="3.66" shape="10775.63,1345.26 10772.59,1344.73"/>
    </edge>
    <edge id=":node_375_end_0" function="internal">
        <lane id=":node_375_end_0_0" index="0" speed="13.89" length="3.50" width="3.66" shape="9931.11,1252.38 9930.08,1252.34 9929.36,1252.44 9928.65,1252.52 9927.62,1252.44"/>
    </edge>
    <edge id=":node_375_end_1" function="internal">
        <lane id=":node_375_end_1_0" index="0" speed="13.89" length="3.00" width="3.66" shape="9931.52,1248.74 9928.54,1248.41"/>
        <lane id=":node_375_end_1_1" index="1" speed="13.89" length="3.00" width="3.66" shape="9931.92,1245.10 9928.94,1244.77"/>
    </edge>
    <edge id=":node_382_start_0" function="internal">
        <lane id=":node_382_start_0_0" index="0" speed="13.89" length="80.92" width="3.66" shape="9922.24,1251.57 9842.31,1238.95"/>
    </edge>
    <edge id=":node_382_start_1" function="internal">
        <lane id=":node_382_start_1_0" index="0" speed="13.89" length="80.94" width="3.66" shape="9922.77,1247.75 9842.31,1238.95"/>
        <lane id=":node_382_start_1_1" index="1" speed="13.89" length="80.94" width="3.66" shape="9923.18,1244.12 9842.71,1235.31"/>
    </edge>

    <edge id="373.0" from="node_373_start" to="node_373_end" priority="-1" type="town" shape="14422.01,3252.08 14410.45,3247.29 14392.89,3239.94 14381.35,3235.14 14370.03,3230.43 14357.07,3225.00 14342.87,3219.08 14332.74,3214.87 14310.23,3205.47 14289.29,3196.69 14268.38,3187.97 14243.05,3177.30 14221.35,3168.23 14192.25,3155.95 14162.07,3143.03 14143.73,3134.97 14120.84,3124.70 14099.40,3114.87 14085.80,3108.56 14077.67,3104.76 14057.01,3094.87 14049.55,3091.27 14037.68,3085.54 14029.39,3081.46 14017.23,3075.49 14004.41,3069.19 13996.53,3065.24 13981.46,3057.75 13969.28,3051.55 13956.45,3044.92 13940.95,3036.83 13926.21,3029.01 13908.22,3019.22 13891.44,3010.14 13883.09,3005.53 13872.99,2999.90 13864.11,2994.97 13854.04,2989.38 13835.08,2978.81 13821.57,2971.28 13809.99,2964.73 13794.16,2955.76 13773.27,2943.95 13746.84,2928.76 13731.92,2920.24 13714.92,2910.54 13700.85,2902.50 13693.01,2898.04 13673.39,2886.79 13657.71,2877.86 13639.96,2867.71 13614.19,2853.05 13597.09,2843.36 13581.01,2834.20 13560.23,2822.25 13546.06,2814.21 13527.78,2803.84 13516.54,2797.39 13501.05,2788.57 13487.34,2780.74 13471.04,2771.37 13451.16,2760.00 13431.24,2748.57 13407.73,2735.09 13389.41,2724.70 13372.57,2715.14 13358.51,2707.05 13338.63,2695.67 13319.51,2684.76 13293.45,2669.80 13265.08,2653.60 13231.84,2634.58 13210.84,2622.56 13188.02,2609.53 13170.33,2599.41 13153.14,2589.62 13136.94,2580.40 13119.78,2570.52 13108.43,2564.07 13098.24,2558.23 13086.49,2551.47 13077.88,2546.55 13069.74,2541.83 13056.56,2534.34 13045.73,2528.10 13036.70,2522.95 13027.56,2517.76 13016.82,2511.63 13002.93,2503.73 12991.92,2497.39 12980.58,2490.94 12971.99,2486.03 12962.35,2480.54 12953.52,2475.52 12945.53,2470.98 12937.60,2466.48 12925.35,2459.44 12915.44,2453.72 12903.97,2447.20 12891.05,2439.85 12884.16,2435.91 12877.15,2431.88 12868.58,2426.95 12854.30,2418.84 12841.73,2411.63 12834.04,2407.24 12816.16,2396.96 12807.29,2391.83 12797.83,2386.37 12784.20,2378.59 12766.71,2368.58 12754.93,2361.87 12738.29,2352.27 12725.83,2345.17 12714.05,2338.45 12701.35,2331.22 12692.20,2326.06 12678.75,2318.41 12662.87,2309.29 12655.10,2304.90 12647.55,2300.60 12628.64,2289.74 12611.47,2279.95 12593.40,2269.59 12570.49,2256.59 12559.97,2250.57 12547.50,2243.41 12533.23,2235.29 12513.90,2224.28 12504.26,2218.78 12491.43,2211.39 12481.68,2205.80 12471.77,2200.19 12458.78,2192.76 12451.38,2188.51 12443.21,2183.87 12428.44,2175.43 12413.16,2166.70 12400.50,2159.50 12385.31,2150.75 12365.63,2139.46 12345.86,2128.20 12332.64,2120.69 12305.20,2104.97 12288.05,2095.21 12276.70,2088.65 12259.22,2078.64 12244.41,2070.14 12234.69,2064.65 12220.53,2056.43 12200.71,2045.10 12181.91,2034.42 12159.11,2021.48 12150.07,2016.27 12135.00,2007.72 12100.60,1988.06 12081.35,1976.97 12055.61,1962.25 12048.15,1957.99 12045.38,1956.41 12029.89,1947.53 12013.70,1938.35 12001.94,1931.61 11989.72,1924.64 11980.52,1919.38 11965.17,1910.62 11957.39,1906.18 11941.63,1897.18 11932.32,1891.85 11920.65,1885.21 11908.80,1878.45 11895.71,1870.97 11884.02,1864.27 11872.24,1857.54 11858.47,1849.71 11849.28,1844.44 11837.05,1837.47 11823.91,1830.01 11813.66,1824.13 11803.95,1818.55 11789.54,1810.32 11774.66,1801.81 11762.63,1794.94 11753.11,1789.48 11743.42,1783.95 11726.49,1774.24 11708.29,1763.85 11692.58,1754.88 11671.96,1743.11 11657.94,1735.11 11642.34,1726.17 11628.43,1718.21 11616.46,1711.42 11604.34,1704.48 11597.06,1700.31 11587.64,1694.95 11579.35,1690.21 11570.48,1685.14 11561.74,1680.10 11555.65,1676.62 11546.16,1671.19 11536.44,1665.62 11527.39,1660.43 11518.90,1655.58 11511.47,1651.32 11505.41,1647.86 11494.50,1641.63 11480.46,1633.61 11469.09,1627.08 11456.22,1619.73 11447.41,1614.70 11440.60,1610.79 11431.19,1605.40 11419.53,1598.76 11406.91,1591.52 11392.15,1583.10 11382.17,1577.39 11370.84,1570.92 11359.70,1564.56 11348.55,1558.21 11338.35,1552.33 11323.31,1543.71 11316.20,1539.64 11306.73,1534.23 11295.07,1527.52 11285.05,1521.81 11274.71,1515.86 11263.92,1509.71 11254.26,1504.21 11241.53,1496.94 11225.80,1488.02 11210.78,1479.50 11196.57,1471.61 11183.20,1464.38 11172.92,1458.96 11166.27,1455.54 11150.46,1447.55 11137.69,1441.27 11131.20,1438.15 11121.86,1433.77 11110.73,1428.66 11098.39,1423.14 11090.09,1419.53 11078.61,1414.68 11070.74,1411.44 11062.61,1408.19 11053.10,1404.47 11047.18,1402.23 11039.68,1399.44 11032.15,1396.73 11023.64,1393.71 11014.77,1390.64 11006.91,1387.94 10999.71,1385.58 10992.31,1383.18 10983.08,1380.29 10975.64,1378.04 10966.22,1375.22 10955.59,1372.18 10947.45,1369.90 10937.17,1367.13 10927.06,1364.50 10917.18,1361.97 10904.71,1358.95 10891.97,1356.00 10882.60,1353.92 10873.03,1351.87 10861.47,1349.51 10850.36,1347.39">
        <lane id="373.0_0" index="0" disallow="all" speed="13.89" length="4050.94" width="3.66" shape="14418.51,3260.53 14406.93,3255.74 14389.37,3248.38 14377.84,3243.59 14366.51,3238.87 14353.54,3233.44 14339.35,3227.53 14329.22,3223.32 14306.70,3213.91 14285.76,3205.13 14264.84,3196.41 14239.51,3185.74 14217.81,3176.67 14188.67,3164.37 14158.43,3151.43 14140.02,3143.33 14117.06,3133.03 14095.57,3123.18 14081.94,3116.86 14073.76,3113.03 14053.05,3103.12 14045.57,3099.51 14033.68,3093.77 14025.36,3089.67 14013.20,3083.70 14000.35,3077.39 13992.45,3073.43 13977.35,3065.93 13965.11,3059.69 13952.23,3053.04 13936.69,3044.93 13921.88,3037.07 13903.86,3027.26 13887.06,3018.18 13878.65,3013.53 13868.54,3007.90 13859.67,3002.97 13849.59,2997.38 13830.63,2986.80 13817.09,2979.26 13805.48,2972.69 13789.66,2963.72 13768.74,2951.90 13742.29,2936.70 13727.39,2928.19 13710.39,2918.49 13696.32,2910.45 13688.47,2905.98 13668.85,2894.73 13653.18,2885.81 13635.43,2875.66 13609.67,2861.01 13592.57,2851.32 13576.46,2842.14 13555.69,2830.19 13541.55,2822.17 13523.25,2811.79 13512.00,2805.34 13496.52,2796.52 13482.79,2788.68 13466.49,2779.31 13446.61,2767.94 13426.69,2756.51 13403.20,2743.04 13384.90,2732.66 13368.03,2723.09 13353.96,2714.99 13334.09,2703.61 13314.97,2692.70 13288.91,2677.74 13260.54,2661.54 13227.30,2642.52 13206.30,2630.50 13183.48,2617.48 13165.80,2607.36 13148.61,2597.57 13132.40,2588.34 13115.23,2578.46 13103.90,2572.02 13093.69,2566.17 13081.94,2559.41 13073.32,2554.48 13065.19,2549.77 13052.02,2542.28 13041.18,2536.04 13032.18,2530.90 13023.03,2525.71 13012.29,2519.58 12998.39,2511.67 12987.38,2505.33 12976.05,2498.89 12967.46,2493.98 12957.83,2488.49 12949.00,2483.48 12941.01,2478.94 12933.06,2474.42 12920.79,2467.37 12910.90,2461.66 12899.45,2455.15 12886.52,2447.80 12879.61,2443.85 12872.59,2439.81 12864.05,2434.90 12849.77,2426.79 12837.19,2419.57 12829.49,2415.18 12811.59,2404.89 12802.71,2399.75 12793.28,2394.31 12779.66,2386.53 12762.17,2376.53 12750.38,2369.81 12733.74,2360.21 12721.30,2353.12 12709.52,2346.40 12696.84,2339.18 12687.69,2334.02 12674.21,2326.35 12658.33,2317.24 12650.59,2312.86 12643.00,2308.54 12624.10,2297.68 12606.93,2287.89 12588.87,2277.54 12565.97,2264.54 12555.42,2258.51 12542.96,2251.36 12528.70,2243.24 12509.37,2232.23 12499.71,2226.72 12486.87,2219.32 12477.15,2213.75 12467.24,2208.14 12454.23,2200.70 12446.85,2196.46 12438.68,2191.82 12423.90,2183.38 12408.63,2174.65 12395.95,2167.44 12380.75,2158.68 12361.09,2147.40 12341.34,2136.15 12328.11,2128.64 12300.66,2112.92 12283.51,2103.15 12272.14,2096.58 12254.67,2086.58 12239.88,2078.09 12230.15,2072.59 12215.96,2064.36 12196.18,2053.05 12177.39,2042.38 12154.58,2029.43 12145.53,2024.21 12130.47,2015.67 12096.05,1996.00 12076.80,1984.91 12051.07,1970.19 12043.62,1965.94 12040.83,1964.35 12025.36,1955.48 12009.17,1946.30 11997.40,1939.55 11985.19,1932.59 11975.98,1927.33 11960.64,1918.57 11952.86,1914.13 11937.09,1905.12 11927.79,1899.80 11916.12,1893.16 11904.27,1886.40 11891.17,1878.91 11879.48,1872.21 11867.71,1865.49 11853.94,1857.66 11844.74,1852.39 11832.53,1845.42 11819.38,1837.96 11809.11,1832.07 11799.41,1826.49 11785.00,1818.26 11770.12,1809.75 11758.09,1802.88 11748.57,1797.42 11738.88,1791.89 11721.95,1782.18 11703.76,1771.80 11688.05,1762.83 11667.43,1751.06 11653.40,1743.05 11637.79,1734.11 11623.90,1726.16 11611.93,1719.37 11599.79,1712.42 11592.53,1708.26 11583.11,1702.90 11574.81,1698.15 11565.93,1693.08 11557.18,1688.03 11551.11,1684.56 11541.62,1679.13 11531.89,1673.56 11522.85,1668.37 11514.36,1663.52 11506.93,1659.26 11500.87,1655.81 11489.96,1649.58 11475.92,1641.55 11464.55,1635.02 11451.68,1627.68 11442.87,1622.64 11436.05,1618.73 11426.66,1613.35 11414.99,1606.70 11402.37,1599.46 11387.61,1591.05 11377.63,1585.33 11366.30,1578.87 11355.17,1572.51 11344.00,1566.15 11333.79,1560.26 11318.76,1551.65 11311.66,1547.58 11302.18,1542.17 11290.52,1535.46 11280.50,1529.75 11270.17,1523.80 11259.39,1517.66 11249.73,1512.16 11237.01,1504.89 11221.29,1495.98 11206.30,1487.48 11192.17,1479.64 11178.89,1472.45 11168.69,1467.07 11162.12,1463.69 11146.38,1455.74 11133.68,1449.49 11127.28,1446.42 11118.01,1442.07 11106.95,1436.99 11094.69,1431.51 11086.49,1427.94 11075.08,1423.12 11067.30,1419.92 11059.25,1416.70 11049.81,1413.01 11043.97,1410.80 11036.54,1408.03 11029.07,1405.35 11020.62,1402.35 11011.79,1399.29 11004.00,1396.62 10996.88,1394.28 10989.54,1391.90 10980.39,1389.03 10973.01,1386.80 10963.65,1384.00 10953.10,1380.98 10945.03,1378.72 10934.83,1375.98 10924.78,1373.36 10914.97,1370.85 10902.60,1367.85 10889.94,1364.92 10880.65,1362.86 10871.16,1360.83 10859.70,1358.49 10852.56,1357.12" type="shoulder"/>
        <lane id="373.0_1" index="1" speed="13.89" length="4050.94" width="3.66" shape="14419.91,3257.15 14408.34,3252.36 14390.78,3245.01 14379.24,3240.21 14367.92,3235.50 14354.96,3230.07 14340.76,3224.15 14330.63,3219.94 14308.11,3210.54 14287.17,3201.76 14266.26,3193.03 14240.93,3182.36 14219.23,3173.29 14190.10,3161.00 14159.89,3148.07 14141.50,3139.99 14118.57,3129.70 14097.11,3119.86 14083.49,3113.54 14075.32,3109.72 14054.64,3099.82 14047.17,3096.21 14035.28,3090.48 14026.97,3086.39 14014.81,3080.42 14001.98,3074.11 13994.08,3070.15 13978.99,3062.66 13966.78,3056.44 13953.92,3049.79 13938.40,3041.69 13923.61,3033.85 13905.60,3024.05 13888.82,3014.96 13880.43,3010.33 13870.32,3004.70 13861.45,2999.77 13851.37,2994.18 13832.41,2983.61 13818.89,2976.07 13807.29,2969.51 13791.46,2960.54 13770.55,2948.72 13744.11,2933.52 13729.20,2925.01 13712.20,2915.31 13698.13,2907.27 13690.29,2902.81 13670.67,2891.56 13654.99,2882.63 13637.24,2872.48 13611.48,2857.82 13594.38,2848.13 13578.28,2838.96 13557.51,2827.02 13543.35,2818.99 13525.06,2808.61 13513.82,2802.16 13498.33,2793.34 13484.61,2785.50 13468.31,2776.13 13448.43,2764.76 13428.51,2753.33 13405.01,2739.86 13386.70,2729.48 13369.85,2719.91 13355.78,2711.81 13335.91,2700.44 13316.78,2689.53 13290.72,2674.57 13262.36,2658.37 13229.12,2639.35 13208.12,2627.33 13185.30,2614.30 13167.61,2604.18 13150.43,2594.39 13134.21,2585.17 13117.05,2575.28 13105.71,2568.84 13095.51,2562.99 13083.76,2556.23 13075.14,2551.31 13067.01,2546.59 13053.84,2539.11 13043.00,2532.86 13033.99,2527.72 13024.85,2522.53 13014.10,2516.40 13000.21,2508.50 12989.20,2502.16 12977.86,2495.71 12969.27,2490.80 12959.64,2485.31 12950.81,2480.29 12942.82,2475.75 12934.88,2471.25 12922.61,2464.20 12912.71,2458.49 12901.26,2451.97 12888.33,2444.62 12881.43,2440.67 12874.42,2436.64 12865.86,2431.72 12851.58,2423.61 12839.00,2416.40 12831.31,2412.00 12813.42,2401.72 12804.55,2396.58 12795.10,2391.13 12781.48,2383.36 12763.99,2373.35 12752.20,2366.63 12735.56,2357.03 12723.11,2349.94 12711.33,2343.22 12698.64,2336.00 12689.49,2330.84 12676.03,2323.18 12660.15,2314.06 12652.39,2309.68 12644.82,2305.36 12625.91,2294.51 12608.75,2284.72 12590.68,2274.36 12567.78,2261.36 12557.24,2255.33 12544.78,2248.18 12530.52,2240.06 12511.18,2229.05 12501.53,2223.54 12488.70,2216.15 12478.96,2210.57 12469.06,2204.96 12456.05,2197.52 12448.66,2193.28 12440.49,2188.64 12425.72,2180.20 12410.44,2171.47 12397.77,2164.26 12382.58,2155.51 12362.91,2144.23 12343.15,2132.97 12329.92,2125.46 12302.48,2109.74 12285.32,2099.97 12273.97,2093.41 12256.49,2083.40 12241.69,2074.91 12231.96,2069.42 12217.79,2061.19 12197.99,2049.87 12179.20,2039.19 12156.39,2026.25 12147.35,2021.04 12132.29,2012.49 12097.87,1992.82 12078.62,1981.73 12052.89,1967.02 12045.43,1962.76 12042.65,1961.17 12027.17,1952.30 12010.98,1943.12 11999.22,1936.38 11987.00,1929.41 11977.80,1924.15 11962.45,1915.39 11954.67,1910.95 11938.91,1901.95 11929.60,1896.62 11917.93,1889.98 11906.08,1883.22 11892.99,1875.74 11881.30,1869.04 11869.52,1862.31 11855.75,1854.48 11846.56,1849.21 11834.34,1842.24 11821.19,1834.78 11810.93,1828.89 11801.22,1823.32 11786.82,1815.09 11771.94,1806.58 11759.91,1799.71 11750.39,1794.25 11740.69,1788.72 11723.77,1779.01 11705.57,1768.62 11689.86,1759.65 11669.24,1747.88 11655.22,1739.88 11639.61,1730.93 11625.71,1722.98 11613.74,1716.19 11601.61,1709.24 11594.34,1705.08 11584.92,1699.72 11576.63,1694.98 11567.75,1689.90 11559.01,1684.86 11552.93,1681.39 11543.43,1675.96 11533.71,1670.38 11524.66,1665.20 11516.18,1660.35 11508.75,1656.09 11502.69,1652.63 11491.78,1646.40 11477.73,1638.38 11466.36,1631.85 11453.50,1624.50 11444.68,1619.47 11437.87,1615.55 11428.47,1610.17 11416.81,1603.53 11404.19,1596.29 11389.43,1587.87 11379.45,1582.16 11368.12,1575.69 11356.98,1569.33 11345.82,1562.97 11335.62,1557.09 11320.58,1548.47 11313.48,1544.41 11304.00,1538.99 11292.34,1532.28 11282.32,1526.57 11271.98,1520.62 11261.20,1514.48 11251.54,1508.98 11238.82,1501.71 11223.09,1492.80 11208.10,1484.29 11193.93,1476.43 11180.62,1469.22 11170.38,1463.83 11163.78,1460.43 11148.01,1452.46 11135.28,1446.20 11128.85,1443.11 11119.55,1438.75 11108.47,1433.66 11096.17,1428.16 11087.93,1424.58 11076.49,1419.75 11068.68,1416.53 11060.59,1413.30 11051.12,1409.59 11045.26,1407.37 11037.80,1404.60 11030.31,1401.90 11021.83,1398.89 11012.98,1395.83 11005.17,1393.15 10998.01,1390.80 10990.65,1388.41 10981.46,1385.54 10974.06,1383.30 10964.68,1380.49 10954.09,1377.46 10946.00,1375.19 10935.77,1372.44 10925.69,1369.82 10915.85,1367.30 10903.45,1364.29 10890.75,1361.35 10881.43,1359.28 10871.91,1357.24 10860.41,1354.90 10853.24,1353.53"/>
        <lane id="373.0_2" index="2" speed="13.89" length="4050.94" width="3.66" shape="14421.31,3253.77 14409.75,3248.98 14392.19,3241.63 14380.65,3236.83 14369.33,3232.12 14356.37,3226.69 14342.17,3220.77 14332.04,3216.56 14309.53,3207.16 14288.59,3198.38 14267.67,3189.66 14242.34,3178.99 14220.64,3169.92 14191.54,3157.63 14161.34,3144.71 14142.99,3136.64 14120.09,3126.37 14098.64,3116.53 14085.03,3110.22 14076.89,3106.42 14056.22,3096.52 14048.76,3092.92 14036.88,3087.19 14028.58,3083.10 14016.43,3077.13 14003.60,3070.83 13995.72,3066.88 13980.64,3059.39 13968.45,3053.18 13955.61,3046.54 13940.10,3038.45 13925.35,3030.62 13907.35,3020.83 13890.57,3011.75 13882.20,3007.13 13872.10,3001.50 13863.22,2996.57 13853.15,2990.98 13834.19,2980.41 13820.68,2972.88 13809.09,2966.32 13793.26,2957.35 13772.37,2945.54 13745.93,2930.35 13731.01,2921.83 13714.01,2912.13 13699.95,2904.09 13692.10,2899.63 13672.48,2888.38 13656.80,2879.45 13639.06,2869.30 13613.29,2854.64 13596.19,2844.95 13580.10,2835.79 13559.32,2823.84 13545.16,2815.80 13526.88,2805.43 13515.63,2798.98 13500.15,2790.16 13486.43,2782.33 13470.13,2772.96 13450.25,2761.59 13430.33,2750.16 13406.82,2736.68 13388.51,2726.29 13371.66,2716.73 13357.60,2708.64 13337.72,2697.26 13318.60,2686.35 13292.54,2671.39 13264.17,2655.19 13230.93,2636.17 13209.93,2624.15 13187.11,2611.12 13169.42,2601.00 13152.24,2591.21 13136.03,2581.99 13118.87,2572.11 13107.53,2565.66 13097.33,2559.82 13085.58,2553.06 13076.97,2548.14 13068.83,2543.42 13055.65,2535.93 13044.82,2529.69 13035.80,2524.54 13026.66,2519.35 13015.92,2513.22 13002.02,2505.32 12991.01,2498.98 12979.68,2492.53 12971.09,2487.62 12961.45,2482.13 12952.62,2477.11 12944.63,2472.57 12936.69,2468.07 12924.44,2461.03 12914.53,2455.31 12903.07,2448.79 12890.15,2441.44 12883.25,2437.50 12876.24,2433.47 12867.67,2428.54 12853.40,2420.43 12840.82,2413.22 12833.13,2408.83 12815.25,2398.55 12806.38,2393.42 12796.92,2387.96 12783.29,2380.18 12765.80,2370.17 12754.02,2363.46 12737.38,2353.86 12724.93,2346.76 12713.15,2340.04 12700.45,2332.81 12691.30,2327.65 12677.84,2320.00 12661.96,2310.88 12654.20,2306.49 12646.64,2302.19 12627.73,2291.33 12610.56,2281.54 12592.50,2271.18 12569.59,2258.18 12559.06,2252.16 12546.59,2245.00 12532.33,2236.88 12513.00,2225.87 12503.35,2220.37 12490.52,2212.98 12480.78,2207.39 12470.87,2201.78 12457.87,2194.35 12450.47,2190.10 12442.31,2185.46 12427.53,2177.02 12412.26,2168.29 12399.59,2161.09 12384.40,2152.34 12364.72,2141.05 12344.96,2129.79 12331.74,2122.28 12304.29,2106.56 12287.14,2096.80 12275.79,2090.24 12258.31,2080.23 12243.51,2071.73 12233.78,2066.24 12219.62,2058.02 12199.81,2046.69 12181.01,2036.01 12158.21,2023.07 12149.16,2017.86 12134.10,2009.31 12099.69,1989.65 12080.44,1978.56 12054.70,1963.84 12047.24,1959.58 12044.47,1958.00 12028.99,1949.12 12012.80,1939.94 12001.03,1933.20 11988.81,1926.23 11979.61,1920.97 11964.26,1912.21 11956.48,1907.77 11940.72,1898.77 11931.42,1893.44 11919.75,1886.80 11907.89,1880.04 11894.80,1872.56 11883.11,1865.86 11871.34,1859.13 11857.57,1851.30 11848.37,1846.03 11836.15,1839.06 11823.01,1831.60 11812.75,1825.72 11803.04,1820.14 11788.63,1811.91 11773.75,1803.40 11761.72,1796.53 11752.20,1791.07 11742.51,1785.54 11725.58,1775.83 11707.38,1765.44 11691.67,1756.47 11671.05,1744.70 11657.03,1736.70 11641.43,1727.76 11627.53,1719.80 11615.56,1713.01 11603.43,1706.07 11596.15,1701.90 11586.74,1696.54 11578.44,1691.80 11569.57,1686.73 11560.83,1681.69 11554.74,1678.21 11545.25,1672.78 11535.53,1667.21 11526.48,1662.02 11517.99,1657.17 11510.56,1652.91 11504.50,1649.45 11493.59,1643.22 11479.55,1635.20 11468.18,1628.67 11455.31,1621.32 11446.50,1616.29 11439.69,1612.38 11430.28,1606.99 11418.62,1600.35 11406.00,1593.11 11391.24,1584.69 11381.26,1578.98 11369.93,1572.51 11358.80,1566.15 11347.64,1559.80 11337.44,1553.92 11322.40,1545.30 11315.29,1541.23 11305.82,1535.82 11294.16,1529.11 11284.14,1523.40 11273.80,1517.45 11263.02,1511.30 11253.36,1505.80 11240.63,1498.53 11224.90,1489.61 11209.89,1481.10 11195.69,1473.22 11182.34,1466.00 11172.07,1460.58 11165.44,1457.17 11149.65,1449.19 11136.89,1442.92 11130.42,1439.80 11121.09,1435.43 11109.98,1430.33 11097.65,1424.81 11089.37,1421.21 11077.91,1416.37 11070.05,1413.14 11061.94,1409.89 11052.44,1406.18 11046.54,1403.94 11039.05,1401.16 11031.54,1398.45 11023.04,1395.44 11014.18,1392.37 11006.33,1389.68 10999.14,1387.32 10991.76,1384.92 10982.54,1382.04 10975.11,1379.79 10965.71,1376.98 10955.09,1373.94 10946.97,1371.67 10936.70,1368.90 10926.60,1366.27 10916.74,1363.75 10904.29,1360.73 10891.57,1357.79 10882.21,1355.71 10872.66,1353.66 10861.12,1351.31 10853.93,1349.93"/>
    </edge>
    <edge id="374.0" from="node_374_start" to="junction_92" priority="-1" type="town" shape="10775.19,1335.83 10770.75,1335.28 10763.49,1334.47">
        <lane id="374.0_0" index="0" speed="13.89" length="8.13" width="3.66" shape="10772.59,1344.73 10769.70,1344.37 10764.56,1343.80"/>
        <lane id="374.0_1" index="1" speed="13.89" length="8.13" width="3.66" shape="10773.04,1341.10 10770.12,1340.73 10764.96,1340.16"/>
        <lane id="374.0_2" index="2" speed="13.89" length="8.13" width="3.66" shape="10773.49,1337.46 10770.54,1337.10 10765.37,1336.52"/>
    </edge>
    <edge id="375.0" from="junction_29" to="node_375_end" priority="-1" type="town" shape="10022.96,1253.29 10016.23,1252.55 10004.86,1251.26 9996.22,1250.29 9988.87,1249.49 9979.55,1248.48 9970.82,1247.51 9961.73,1246.51 9952.30,1245.50 9940.95,1244.26 9930.57,1243.11">
        <lane id="375.0_0" index="0" speed="13.89" length="91.39" width="3.66" shape="10021.96,1262.39 10015.21,1261.64 10003.84,1260.35 9995.22,1259.39 9987.88,1258.59 9978.55,1257.58 9969.82,1256.61 9960.74,1255.61 9951.32,1254.60 9939.95,1253.36 9931.11,1252.38"/>
        <lane id="375.0_1" index="1" speed="13.89" length="91.39" width="3.66" shape="10022.36,1258.75 10015.62,1258.01 10004.25,1256.72 9995.62,1255.75 9988.28,1254.95 9978.95,1253.94 9970.22,1252.97 9961.14,1251.97 9951.71,1250.96 9940.35,1249.72 9931.52,1248.74"/>
        <lane id="375.0_2" index="2" speed="13.89" length="91.39" width="3.66" shape="10022.76,1255.11 10016.03,1254.37 10004.66,1253.08 9996.02,1252.11 9988.67,1251.31 9979.35,1250.30 9970.62,1249.33 9961.53,1248.33 9952.10,1247.32 9940.75,1246.08 9931.92,1245.10"/>
    </edge>
    <edge id="376.0" from="node_376_start" to="junction_29" priority="-1" type="town" shape="10280.16,1339.85 10226.44,1319.22 10196.88,1308.10 10180.35,1302.16 10163.78,1296.36 10148.80,1291.67 10134.14,1287.37 10121.31,1283.76 10108.98,1280.42 10098.33,1277.79 10084.20,1274.44 10070.81,1271.33 10058.76,1268.55 10048.91,1266.29">
        <lane id="376.0_0" index="0" speed="13.89" length="242.78" width="3.66" shape="10279.51,1341.56 10225.79,1320.93 10196.25,1309.82 10179.74,1303.89 10163.21,1298.10 10148.27,1293.42 10133.64,1289.13 10120.82,1285.52 10108.52,1282.19 10097.90,1279.57 10083.78,1276.22 10070.40,1273.11 10058.35,1270.33 10048.50,1268.07"/>
    </edge>
    <edge id="378.0" from="junction_92" to="node_378_end" priority="-1" type="town" shape="10731.37,1341.10 10722.66,1340.91 10709.19,1340.61 10702.82,1340.49 10694.73,1340.32 10687.91,1340.22 10682.62,1340.06 10668.90,1339.78 10656.66,1339.48 10648.98,1339.37 10641.51,1339.37 10633.53,1339.55 10626.19,1339.81 10621.94,1340.06 10616.89,1340.45 10611.62,1340.99 10608.31,1341.35 10604.89,1341.84 10602.16,1342.33 10598.30,1343.19 10594.21,1344.22 10588.91,1345.79 10578.68,1349.48 10566.99,1353.96 10552.62,1360.06">
        <lane id="378.0_0" index="0" speed="13.89" length="181.32" width="3.66" shape="10731.33,1342.93 10722.62,1342.74 10709.15,1342.44 10702.79,1342.32 10694.70,1342.15 10687.87,1342.05 10682.58,1341.89 10668.86,1341.61 10656.62,1341.31 10648.97,1341.20 10641.53,1341.20 10633.58,1341.38 10626.27,1341.64 10622.07,1341.89 10617.06,1342.27 10611.81,1342.81 10608.54,1343.17 10605.18,1343.65 10602.52,1344.13 10598.72,1344.97 10594.70,1345.99 10589.48,1347.53 10579.32,1351.20 10567.68,1355.66 10553.33,1361.75"/>
    </edge>
    <edge id="379.0" from="junction_92" to="junction_29" priority="-1" type="town" shape="10732.72,1331.17 10727.43,1330.60 10719.51,1329.72 10707.30,1328.40 10696.18,1327.17 10685.42,1325.97 10675.10,1324.84 10666.87,1323.92 10658.31,1322.98 10647.54,1321.79 10637.96,1320.73 10625.35,1319.32 10613.17,1317.99 10599.92,1316.55 10586.12,1315.04 10572.59,1313.56 10560.40,1312.25 10547.09,1310.78 10535.27,1309.50 10524.75,1308.32 10512.47,1306.96 10501.89,1305.80 10485.48,1303.98 10471.53,1302.42 10459.60,1301.11 10449.05,1299.95 10424.71,1297.29 10410.89,1295.77 10397.59,1294.31 10384.86,1292.91 10373.84,1291.72 10361.15,1290.34 10349.49,1289.05 10343.04,1288.34 10332.18,1287.16 10322.38,1286.08 10311.31,1284.87 10298.90,1283.52 10287.39,1282.28 10279.35,1281.40 10265.71,1279.91 10254.64,1278.67 10244.12,1277.50 10232.18,1276.25 10224.83,1275.43 10215.27,1274.37 10203.82,1273.14 10191.98,1271.82 10180.40,1270.58 10169.20,1269.35 10160.07,1268.35 10149.15,1267.17 10142.29,1266.44 10132.98,1265.42 10124.18,1264.45 10113.55,1263.29 10103.80,1262.22 10094.72,1261.21 10087.91,1260.45 10075.45,1259.09 10066.09,1258.07 10058.57,1257.24 10051.33,1256.43 10050.16,1256.30">
        <lane id="379.0_0" index="0" disallow="all" speed="13.89" length="686.67" width="3.66" shape="10731.74,1340.27 10726.43,1339.70 10718.52,1338.82 10706.31,1337.50 10695.17,1336.26 10684.42,1335.07 10674.10,1333.94 10665.86,1333.02 10657.31,1332.08 10646.54,1330.89 10636.95,1329.82 10624.35,1328.42 10612.18,1327.09 10598.93,1325.65 10585.13,1324.14 10571.61,1322.66 10559.41,1321.35 10546.10,1319.88 10534.27,1318.60 10523.74,1317.41 10511.47,1316.06 10500.89,1314.90 10484.47,1313.07 10470.52,1311.52 10458.60,1310.21 10448.06,1309.05 10423.72,1306.39 10409.89,1304.87 10396.59,1303.41 10383.87,1302.01 10372.86,1300.82 10360.15,1299.44 10348.49,1298.15 10342.05,1297.44 10331.19,1296.26 10321.38,1295.18 10310.32,1293.97 10297.92,1292.62 10286.41,1291.38 10278.36,1290.50 10264.71,1289.01 10253.63,1287.76 10243.14,1286.60 10231.21,1285.35 10223.82,1284.52 10214.28,1283.47 10202.83,1282.24 10190.99,1280.92 10179.42,1279.68 10168.20,1278.45 10159.08,1277.45 10148.17,1276.27 10141.31,1275.54 10131.98,1274.52 10123.18,1273.55 10112.56,1272.39 10102.80,1271.32 10093.71,1270.30 10086.91,1269.55 10074.46,1268.19 10065.10,1267.17 10057.56,1266.33 10050.32,1265.52 10049.15,1265.39" type="shoulder"/>