<?xml version='1.0' encoding='utf-8'?>
<edges>
    <edge id="373.0" from="node_373_start" to="node_373_end" numLanes="3" speed="13.89" type="town" shape="668389.36,3285321.57 668377.80,3285316.78 668377.80,3285316.78 668360.24,3285309.43 668360.24,3285309.43 668348.70,3285304.63 668348.70,3285304.63 668337.38,3285299.92 668337.38,3285299.92 668324.42,3285294.49 668324.42,3285294.49 668310.22,3285288.57 668310.22,3285288.57 668300.09,3285284.36 668300.09,3285284.36 668277.58,3285274.96 668277.58,3285274.96 668256.64,3285266.18 668256.64,3285266.18 668235.73,3285257.46 668235.73,3285257.46 668210.40,3285246.79 668210.40,3285246.79 668188.70,3285237.72 668188.70,3285237.72 668159.60,3285225.44 668159.60,3285225.44 668129.42,3285212.52 668129.42,3285212.52 668111.08,3285204.46 668111.08,3285204.46 668088.19,3285194.19 668088.19,3285194.19 668066.75,3285184.36 668066.75,3285184.36 668053.15,3285178.05 668053.15,3285178.05 668045.02,3285174.25 668045.02,3285174.25 668024.36,3285164.36 668024.36,3285164.36 668016.90,3285160.76 668016.90,3285160.76 668005.03,3285155.03 668005.03,3285155.03 667996.74,3285150.95 667996.74,3285150.95 667984.58,3285144.98 667984.58,3285144.98 667971.76,3285138.68 667971.76,3285138.68 667963.88,3285134.73 667963.88,3285134.73 667948.81,3285127.24 667948.81,3285127.24 667936.63,3285121.04 667936.63,3285121.04 667923.80,3285114.41 667923.80,3285114.41 667908.30,3285106.32 667908.30,3285106.32 667893.56,3285098.50 667893.56,3285098.50 667875.57,3285088.71 667875.57,3285088.71 667858.79,3285079.63 667858.79,3285079.63 667850.44,3285075.02 667850.44,3285075.02 667840.34,3285069.39 667840.34,3285069.39 667831.46,3285064.46 667831.46,3285064.46 667821.39,3285058.87 667821.39,3285058.87 667802.43,3285048.30 667802.43,3285048.30 667788.92,3285040.77 667788.92,3285040.77 667777.34,3285034.22 667777.34,3285034.22 667761.51,3285025.25 667761.51,3285025.25 667740.62,3285013.44 667740.62,3285013.44 667714.19,3284998.25 667714.19,3284998.25 667699.27,3284989.73 667699.27,3284989.73 667682.27,3284980.03 667682.27,3284980.03 667668.20,3284971.99 667668.20,3284971.99 667660.36,3284967.53 667660.36,3284967.53 667640.74,3284956.28 667640.74,3284956.28 667625.06,3284947.35 667625.06,3284947.35 667607.31,3284937.20 667607.31,3284937.20 667581.54,3284922.54 667581.54,3284922.54 667564.44,3284912.85 667564.44,3284912.85 667548.36,3284903.69 667548.36,3284903.69 667527.58,3284891.74 667527.58,3284891.74 667513.41,3284883.70 667513.41,3284883.70 667495.13,3284873.33 667495.13,3284873.33 667483.89,3284866.88 667483.89,3284866.88 667468.40,3284858.06 667468.40,3284858.06 667454.69,3284850.23 667454.69,3284850.23 667438.39,3284840.86 667438.39,3284840.86 667418.51,3284829.49 667418.51,3284829.49 667398.59,3284818.06 667398.59,3284818.06 667375.08,3284804.58 667375.08,3284804.58 667356.76,3284794.19 667356.76,3284794.19 667339.92,3284784.63 667339.92,3284784.63 667325.86,3284776.54 667325.86,3284776.54 667305.98,3284765.16 667305.98,3284765.16 667286.86,3284754.25 667286.86,3284754.25 667260.80,3284739.29 667260.80,3284739.29 667232.43,3284723.09 667232.43,3284723.09 667199.19,3284704.07 667199.19,3284704.07 667178.19,3284692.05 667178.19,3284692.05 667155.37,3284679.02 667155.37,3284679.02 667137.68,3284668.90 667137.68,3284668.90 667120.49,3284659.11 667120.49,3284659.11 667104.29,3284649.89 667104.29,3284649.89 667087.13,3284640.01 667087.13,3284640.01 667075.78,3284633.56 667075.78,3284633.56 667065.59,3284627.72 667065.59,3284627.72 667053.84,3284620.96 667053.84,3284620.96 667045.23,3284616.04 667045.23,3284616.04 667037.09,3284611.32 667037.09,3284611.32 667023.91,3284603.83 667023.91,3284603.83 667013.08,3284597.59 667013.08,3284597.59 667004.05,3284592.44 667004.05,3284592.44 666994.91,3284587.25 666994.91,3284587.25 666984.17,3284581.12 666984.17,3284581.12 666970.28,3284573.22 666970.28,3284573.22 666959.27,3284566.88 666959.27,3284566.88 666947.93,3284560.43 666947.93,3284560.43 666939.34,3284555.52 666939.34,3284555.52 666929.70,3284550.03 666929.70,3284550.03 666920.87,3284545.01 666920.87,3284545.01 666912.88,3284540.47 666912.88,3284540.47 666904.95,3284535.97 666904.95,3284535.97 666892.70,3284528.93 666892.70,3284528.93 666882.79,3284523.21 666882.79,3284523.21 666871.32,3284516.69 666871.32,3284516.69 666858.40,3284509.34 666858.40,3284509.34 666851.51,3284505.40 666851.51,3284505.40 666844.50,3284501.37 666844.50,3284501.37 666835.93,3284496.44 666835.93,3284496.44 666821.65,3284488.33 666821.65,3284488.33 666809.08,3284481.12 666809.08,3284481.12 666801.39,3284476.73 666801.39,3284476.73 666783.51,3284466.45 666783.51,3284466.45 666774.64,3284461.32 666774.64,3284461.32 666765.18,3284455.86 666765.18,3284455.86 666751.55,3284448.08 666751.55,3284448.08 666734.06,3284438.07 666734.06,3284438.07 666722.28,3284431.36 666722.28,3284431.36 666705.64,3284421.76 666705.64,3284421.76 666693.18,3284414.66 666693.18,3284414.66 666681.40,3284407.94 666681.40,3284407.94 666668.70,3284400.71 666668.70,3284400.71 666659.55,3284395.55 666659.55,3284395.55 666646.10,3284387.90 666646.10,3284387.90 666630.22,3284378.78 666630.22,3284378.78 666622.45,3284374.39 666622.45,3284374.39 666614.90,3284370.09 666614.90,3284370.09 666595.99,3284359.23 666595.99,3284359.23 666578.82,3284349.44 666578.82,3284349.44 666560.75,3284339.08 666560.75,3284339.08 666537.84,3284326.08 666537.84,3284326.08 666527.32,3284320.06 666527.32,3284320.06 666514.85,3284312.90 666514.85,3284312.90 666500.58,3284304.78 666500.58,3284304.78 666481.25,3284293.77 666481.25,3284293.77 666471.61,3284288.27 666471.61,3284288.27 666458.78,3284280.88 666458.78,3284280.88 666449.03,3284275.29 666449.03,3284275.29 666439.12,3284269.68 666439.12,3284269.68 666426.13,3284262.25 666426.13,3284262.25 666418.73,3284258.00 666418.73,3284258.00 666410.56,3284253.36 666410.56,3284253.36 666395.79,3284244.92 666395.79,3284244.92 666380.51,3284236.19 666380.51,3284236.19 666367.85,3284228.99 666367.85,3284228.99 666352.66,3284220.24 666352.66,3284220.24 666332.98,3284208.95 666332.98,3284208.95 666313.21,3284197.69 666313.21,3284197.69 666299.99,3284190.18 666299.99,3284190.18 666272.55,3284174.46 666272.55,3284174.46 666255.40,3284164.70 666255.40,3284164.70 666244.05,3284158.14 666244.05,3284158.14 666226.57,3284148.13 666226.57,3284148.13 666211.76,3284139.63 666211.76,3284139.63 666202.04,3284134.14 666202.04,3284134.14 666187.88,3284125.92 666187.88,3284125.92 666168.06,3284114.59 666168.06,3284114.59 666149.26,3284103.91 666149.26,3284103.91 666126.46,3284090.97 666126.46,3284090.97 666117.42,3284085.76 666117.42,3284085.76 666102.35,3284077.21 666102.35,3284077.21 666067.95,3284057.55 666067.95,3284057.55 666048.70,3284046.46 666048.70,3284046.46 666022.96,3284031.74 666022.96,3284031.74 666015.50,3284027.48 666015.50,3284027.48 666012.73,3284025.90 666012.73,3284025.90 665997.24,3284017.02 665997.24,3284017.02 665981.05,3284007.84 665981.05,3284007.84 665969.29,3284001.10 665969.29,3284001.10 665957.07,3283994.13 665957.07,3283994.13 665947.87,3283988.87 665947.87,3283988.87 665932.52,3283980.11 665932.52,3283980.11 665924.74,3283975.67 665924.74,3283975.67 665908.98,3283966.67 665908.98,3283966.67 665899.67,3283961.34 665899.67,3283961.34 665888.00,3283954.70 665888.00,3283954.70 665876.15,3283947.94 665876.15,3283947.94 665863.06,3283940.46 665863.06,3283940.46 665851.37,3283933.76 665851.37,3283933.76 665839.59,3283927.03 665839.59,3283927.03 665825.82,3283919.20 665825.82,3283919.20 665816.63,3283913.93 665816.63,3283913.93 665804.40,3283906.96 665804.40,3283906.96 665791.26,3283899.50 665791.26,3283899.50 665781.01,3283893.62 665781.01,3283893.62 665771.30,3283888.04 665771.30,3283888.04 665756.89,3283879.81 665756.89,3283879.81 665742.01,3283871.30 665742.01,3283871.30 665729.98,3283864.43 665729.98,3283864.43 665720.46,3283858.97 665720.46,3283858.97 665710.77,3283853.44 665710.77,3283853.44 665693.84,3283843.73 665693.84,3283843.73 665675.64,3283833.34 665675.64,3283833.34 665659.93,3283824.37 665659.93,3283824.37 665639.31,3283812.60 665639.31,3283812.60 665625.29,3283804.60 665625.29,3283804.60 665609.69,3283795.66 665609.69,3283795.66 665595.78,3283787.70 665595.78,3283787.70 665583.81,3283780.91 665583.81,3283780.91 665571.69,3283773.97 665571.69,3283773.97 665564.41,3283769.80 665564.41,3283769.80 665554.99,3283764.44 665554.99,3283764.44 665546.70,3283759.70 665546.70,3283759.70 665537.83,3283754.63 665537.83,3283754.63 665529.09,3283749.59 665529.09,3283749.59 665523.00,3283746.11 665523.00,3283746.11 665513.51,3283740.68 665513.51,3283740.68 665503.79,3283735.11 665503.79,3283735.11 665494.74,3283729.92 665494.74,3283729.92 665486.25,3283725.07 665486.25,3283725.07 665478.82,3283720.81 665478.82,3283720.81 665472.76,3283717.35 665472.76,3283717.35 665461.85,3283711.12 665461.85,3283711.12 665447.81,3283703.10 665447.81,3283703.10 665436.44,3283696.57 665436.44,3283696.57 665423.57,3283689.22 665423.57,3283689.22 665414.76,3283684.19 665414.76,3283684.19 665407.95,3283680.28 665407.95,3283680.28 665398.54,3283674.89 665398.54,3283674.89 665386.88,3283668.25 665386.88,3283668.25 665374.26,3283661.01 665374.26,3283661.01 665359.50,3283652.59 665359.50,3283652.59 665349.52,3283646.88 665349.52,3283646.88 665338.19,3283640.41 665338.19,3283640.41 665327.05,3283634.05 665327.05,3283634.05 665315.90,3283627.70 665315.90,3283627.70 665305.70,3283621.82 665305.70,3283621.82 665290.66,3283613.20 665290.66,3283613.20 665283.55,3283609.13 665283.55,3283609.13 665274.08,3283603.72 665274.08,3283603.72 665262.42,3283597.01 665262.42,3283597.01 665252.40,3283591.30 665252.40,3283591.30 665242.06,3283585.35 665242.06,3283585.35 665231.27,3283579.20 665231.27,3283579.20 665221.61,3283573.70 665221.61,3283573.70 665208.88,3283566.43 665208.88,3283566.43 665193.15,3283557.51 665193.15,3283557.51 665178.13,3283548.99 665178.13,3283548.99 665163.92,3283541.10 665163.92,3283541.10 665150.55,3283533.87 665150.55,3283533.87 665140.27,3283528.45 665140.27,3283528.45 665133.62,3283525.03 665133.62,3283525.03 665117.81,3283517.04 665117.81,3283517.04 665105.04,3283510.76 665105.04,3283510.76 665098.55,3283507.64 665098.55,3283507.64 665089.21,3283503.26 665089.21,3283503.26 665078.08,3283498.15 665078.08,3283498.15 665065.74,3283492.63 665065.74,3283492.63 665057.44,3283489.02 665057.44,3283489.02 665045.96,3283484.17 665045.96,3283484.17 665038.09,3283480.93 665038.09,3283480.93 665029.96,3283477.68 665029.96,3283477.68 665020.45,3283473.96 665020.45,3283473.96 665014.53,3283471.72 665014.53,3283471.72 665007.03,3283468.93 665007.03,3283468.93 664999.50,3283466.22 664999.50,3283466.22 664990.99,3283463.20 664990.99,3283463.20 664982.12,3283460.13 664982.12,3283460.13 664974.26,3283457.43 664974.26,3283457.43 664967.06,3283455.07 664967.06,3283455.07 664959.66,3283452.67 664959.66,3283452.67 664950.43,3283449.78 664950.43,3283449.78 664942.99,3283447.53 664942.99,3283447.53 664933.57,3283444.71 664933.57,3283444.71 664922.94,3283441.67 664922.94,3283441.67 664914.80,3283439.39 664914.80,3283439.39 664904.52,3283436.62 664904.52,3283436.62 664894.41,3283433.99 664894.41,3283433.99 664884.53,3283431.46 664884.53,3283431.46 664872.06,3283428.44 664872.06,3283428.44 664859.32,3283425.49 664859.32,3283425.49 664849.95,3283423.41 664849.95,3283423.41 664840.38,3283421.36 664840.38,3283421.36 664828.82,3283419.00 664828.82,3283419.00 664817.71,3283416.88">
        <lane index="0" width="3.66" type="shoulder" disallow="all" />
        <lane index="1" width="3.66" />
        <lane index="2" width="3.66" />
    </edge>
    <edge id="374.0" from="node_374_start" to="junction_92" numLanes="3" speed="13.89" type="town" shape="664742.54,3283405.32 664738.10,3283404.77 664738.10,3283404.77 664730.84,3283403.96">
        <lane index="0" width="3.66" />
        <lane index="1" width="3.66" />
        <lane index="2" width="3.66" />
    </edge>
    <edge id="375.0" from="junction_29" to="node_375_end" numLanes="3" speed="13.89" type="town" shape="663990.31,3283322.78 663983.58,3283322.04 663983.58,3283322.04 663972.21,3283320.75 663972.21,3283320.75 663963.57,3283319.78 663963.57,3283319.78 663956.22,3283318.98 663956.22,3283318.98 663946.90,3283317.97 663946.90,3283317.97 663938.17,3283317.00 663938.17,3283317.00 663929.08,3283316.00 663929.08,3283316.00 663919.65,3283314.99 663919.65,3283314.99 663908.30,3283313.75 663908.30,3283313.75 663897.92,3283312.60">
        <lane index="0" width="3.66" />
        <lane index="1" width="3.66" />
        <lane index="2" width="3.66" />
    </edge>
    <edge id="376.0" from="node_376_start" to="junction_29" numLanes="1" speed="13.89" type="town" shape="664247.51,3283409.34 664193.79,3283388.71 664193.79,3283388.71 664164.23,3283377.59 664164.23,3283377.59 664147.70,3283371.65 664147.70,3283371.65 664131.13,3283365.85 664131.13,3283365.85 664116.15,3283361.16 664116.15,3283361.16 664101.49,3283356.86 664101.49,3283356.86 664088.66,3283353.25 664088.66,3283353.25 664076.33,3283349.91 664076.33,3283349.91 664065.68,3283347.28 664065.68,3283347.28 664051.55,3283343.93 664051.55,3283343.93 664038.16,3283340.82 664038.16,3283340.82 664026.11,3283338.04 664026.11,3283338.04 664016.26,3283335.78">
        <lane index="0" width="3.66" />
    </edge>
    <edge id="378.0" from="junction_92" to="node_378_end" numLanes="1" speed="13.89" type="town" shape="664698.72,3283410.59 664690.01,3283410.40 664690.01,3283410.40 664676.54,3283410.10 664676.54,3283410.10 664670.17,3283409.98 664670.17,3283409.98 664662.08,3283409.81 664662.08,3283409.81 664655.26,3283409.71 664655.26,3283409.71 664649.97,3283409.55 664649.97,3283409.55 664636.25,3283409.27 664636.25,3283409.27 664624.01,3283408.97 664624.01,3283408.97 664616.33,3283408.86 664616.33,3283408.86 664608.86,3283408.86 664608.86,3283408.86 664600.88,3283409.04 664600.88,3283409.04 664593.54,3283409.30 664593.54,3283409.30 664589.29,3283409.55 664589.29,3283409.55 664584.24,3283409.94 664584.24,3283409.94 664578.97,3283410.48 664578.97,3283410.48 664575.66,3283410.84 664575.66,3283410.84 664572.24,3283411.33 664572.24,3283411.33 664569.51,3283411.82 664569.51,3283411.82 664565.65,3283412.68 664565.65,3283412.68 664561.56,3283413.71 664561.56,3283413.71 664556.26,3283415.28 664556.26,3283415.28 664546.03,3283418.97 664546.03,3283418.97 664534.34,3283423.45 664534.34,3283423.45 664519.97,3283429.55">
        <lane index="0" width="3.66" />
    </edge>
    <edge id="379.0" from="junction_92" to="junction_29" numLanes="3" speed="13.89" type="town" shape="664700.07,3283400.66 664694.78,3283400.09 664694.78,3283400.09 664686.86,3283399.21 664686.86,3283399.21 664674.65,3283397.89 664674.65,3283397.89 664663.53,3283396.66 664663.53,3283396.66 664652.77,3283395.46 664652.77,3283395.46 664642.45,3283394.33 664642.45,3283394.33 664634.22,3283393.41 664634.22,3283393.41 664625.66,3283392.47 664625.66,3283392.47 664614.89,3283391.28 664614.89,3283391.28 664605.31,3283390.22 664605.31,3283390.22 664592.70,3283388.81 664592.70,3283388.81 664580.52,3283387.48 664580.52,3283387.48 664567.27,3283386.04 664567.27,3283386.04 664553.47,3283384.53 664553.47,3283384.53 664539.94,3283383.05 664539.94,3283383.05 664527.75,3283381.74 664527.75,3283381.74 664514.44,3283380.27 664514.44,3283380.27 664502.62,3283378.99 664502.62,3283378.99 664492.10,3283377.81 664492.10,3283377.81 664479.82,3283376.45 664479.82,3283376.45 664469.24,3283375.29 664469.24,3283375.29 664452.83,3283373.47 664452.83,3283373.47 664438.88,3283371.91 664438.88,3283371.91 664426.95,3283370.60 664426.95,3283370.60 664416.40,3283369.44 664416.40,3283369.44 664392.06,3283366.78 664392.06,3283366.78 664378.24,3283365.26 664378.24,3283365.26 664364.94,3283363.80 664364.94,3283363.80 664352.21,3283362.40 664352.21,3283362.40 664341.19,3283361.21 664341.19,3283361.21 664328.50,3283359.83 664328.50,3283359.83 664316.84,3283358.54 664316.84,3283358.54 664310.39,3283357.83 664310.39,3283357.83 664299.53,3283356.65 664299.53,3283356.65 664289.73,3283355.57 664289.73,3283355.57 664278.66,3283354.36 664278.66,3283354.36 664266.25,3283353.01 664266.25,3283353.01 664254.74,3283351.77 664254.74,3283351.77 664246.70,3283350.89 664246.70,3283350.89 664233.06,3283349.40 664233.06,3283349.40 664221.99,3283348.16 664221.99,3283348.16 664211.47,3283346.99 664211.47,3283346.99 664199.53,3283345.74 664199.53,3283345.74 664192.18,3283344.92 664192.18,3283344.92 664182.62,3283343.86 664182.62,3283343.86 664171.17,3283342.63 664171.17,3283342.63 664159.33,3283341.31 664159.33,3283341.31 664147.75,3283340.07 664147.75,3283340.07 664136.55,3283338.84 664136.55,3283338.84 664127.42,3283337.84 664127.42,3283337.84 664116.50,3283336.66 664116.50,3283336.66 664109.64,3283335.93 664109.64,3283335.93 664100.33,3283334.91 664100.33,3283334.91 664091.53,3283333.94 664091.53,3283333.94 664080.90,3283332.78 664080.90,3283332.78 664071.15,3283331.71 664071.15,3283331.71 664062.07,3283330.70 664062.07,3283330.70 664055.26,3283329.94 664055.26,3283329.94 664042.80,3283328.58 664042.80,3283328.58 664033.44,3283327.56 664033.44,3283327.56 664025.92,3283326.73 664025.92,3283326.73 664018.68,3283325.92 664018.68,3283325.92 664017.51,3283325.79">
        <lane index="0" width="3.66" type="shoulder" disallow="all" />
        <lane index="1" width="3.66" />
        <lane index="2" width="3.66" />
    </edge>
    <edge id="380.0" from="node_373_end" to="node_374_start" numLanes="2" speed="13.89" type="town" shape="664817.71,3283416.88 664811.07,3283415.67 664811.07,3283415.67 664802.44,3283414.16 664802.44,3283414.16 664795.82,3283413.02 664795.82,3283413.02 664782.69,3283410.88 664782.69,3283410.88 664769.97,3283408.95 664769.97,3283408.95 664762.59,3283407.90 664762.59,3283407.90 664752.70,3283406.59 664752.70,3283406.59 664742.54,3283405.32">
        <lane index="0" width="3.66" />
        <lane index="1" width="3.66" />
    </edge>