<?xml version="1.0" encoding="UTF-8"?>

<!-- generated on 2025-10-19 17:33:42 by Eclipse SUMO netconvert Version 1.23.1
<netconvertConfiguration xmlns:xsi="http://www.w3.org/2001/XMLSchema-instance" xsi:noNamespaceSchemaLocation="http://sumo.dlr.de/xsd/netconvertConfiguration.xsd">

    <input>
        <node-files value="/home/sdai/harry/TeraSim/jupiter/wb/jupiter_wb_tiles/tile_0117/tile_0117.nod.xml"/>
        <edge-files value="/home/sdai/harry/TeraSim/jupiter/wb/jupiter_wb_tiles/tile_0117/tile_0117.edg.xml"/>
    </input>

    <output>
        <output-file value="/home/sdai/harry/TeraSim/jupiter/wb/jupiter_wb_tiles/tile_0117/tile_0117.net.xml"/>
        <output.street-names value="true"/>
        <output.original-names value="true"/>
    </output>

    <processing>
        <geometry.remove value="false"/>
        <geometry.min-dist value="0.5"/>
        <edges.join value="false"/>
    </processing>

    <junctions>
        <no-internal-links value="false"/>
        <no-turnarounds value="true"/>
        <junctions.join value="true"/>
        <junctions.join-dist value="10"/>
        <junctions.corner-detail value="5"/>
        <junctions.internal-link-detail value="5"/>
        <junctions.limit-turn-speed value="5.5"/>
        <rectangular-lane-cut value="true"/>
        <check-lane-foes.all value="true"/>
    </junctions>

</netconvertConfiguration>
-->

<net version="1.20" junctionCornerDetail="5" junctionLinkDetail="5" rectangularLaneCut="true" limitTurnSpeed="5.50" checkLaneFoesAll="1" xmlns:xsi="http://www.w3.org/2001/XMLSchema-instance" xsi:noNamespaceSchemaLocation="http://sumo.dlr.de/xsd/net_file.xsd">

    <location netOffset="-715575.10,-3286469.57" convBoundary="0.00,0.00,11598.52,427.98" origBoundary="0.00,0.00,727247.11,3286911.87" projParameter="!"/>

    <edge id="201.0" from="junction_15" to="junction_78" priority="-1" type="town" shape="11503.77,417.09 11399.53,407.73 11312.00,399.84 11243.69,393.74 11179.53,387.99 11131.84,383.71 11082.59,379.21 11029.66,374.37 10970.25,368.90 10920.44,364.46 10862.45,359.31 10824.67,355.92 10776.19,351.52 10712.13,345.79 10610.15,336.54 10546.00,330.69 10479.94,324.65 10417.77,318.96 10360.12,313.72 10244.77,303.28 10178.15,297.24 10129.24,292.82 10071.91,287.59 10023.89,283.14 9983.99,279.51 9913.73,273.13 9856.07,267.92 9799.31,262.84 9733.84,256.89 9701.38,253.96 9672.40,251.28 9614.03,245.95 9565.77,241.53 9490.66,234.75 9392.91,225.83 9388.96,225.47 9374.73,224.19 9363.36,223.16 9350.95,222.02 9330.14,220.11 9313.03,218.55 9278.66,215.39 9249.90,212.76 9216.68,209.71 9191.39,207.39 9161.36,204.68 9142.64,202.98 9115.64,200.56 9077.20,197.06 9039.05,193.59 9003.57,190.35 8956.20,186.06 8909.90,181.83 8900.06,180.94 8889.23,179.95 8879.09,179.04 8865.87,177.82 8849.82,176.34 8842.51,175.65 8829.02,174.42 8817.10,173.33 8805.74,172.31 8790.50,170.96 8771.28,169.23 8752.31,167.56 8736.38,166.16 8717.61,164.51 8694.40,162.40 8667.07,159.93 8640.43,157.51 8617.15,155.38 8602.39,154.00 8593.36,153.17 8585.94,152.47 8572.99,151.25 8556.60,149.71 8544.36,148.59 8528.88,147.19 8517.19,146.12 8501.79,144.70 8487.00,143.32 8473.47,142.09 8457.43,140.65 8443.45,139.38 8431.72,138.33 8423.51,137.58 8413.97,136.70 8400.88,135.53 8386.84,134.27 8368.56,132.60 8349.09,130.85 8335.24,129.58 8322.72,128.48 8301.47,126.57 8287.99,125.30 8268.92,123.60 8253.26,122.14 8234.81,120.50 8216.85,118.86 8194.45,116.84 8161.86,113.90 8141.38,112.04 8118.82,109.98 8100.55,108.33 8080.25,106.49 8059.86,104.62 8034.24,102.29 8013.20,100.37 8002.10,99.35 7989.31,98.16 7975.81,96.91 7964.55,95.86 7949.74,94.55 7932.66,93.01 7915.37,91.47 7893.58,89.47 7870.50,87.33 7846.07,85.05 7831.13,83.69 7804.25,81.20 7788.41,79.72 7770.63,78.13 7747.70,76.06 7723.29,73.84 7695.36,71.33 7655.78,67.76 7616.05,64.16 7563.06,59.36 7529.18,56.28 7500.74,53.64 7471.63,50.97 7435.52,47.63 7399.10,44.37 7374.14,42.08 7347.28,39.71 7323.82,37.57 7311.59,36.48 7297.46,35.18 7272.47,32.95 7244.45,30.44 7213.03,27.58 7192.24,25.68 7181.70,24.73 7165.81,23.28 7148.83,21.73 7125.60,19.61 7107.37,17.91 7082.28,15.66 7065.06,14.07 7030.68,10.94 7005.42,8.65 6987.15,7.10 6967.28,5.50 6952.82,4.46 6931.46,3.20 6912.02,2.13 6900.23,1.52 6880.81,0.77 6860.63,0.27 6847.46,0.05 6832.23,0.00 6818.63,0.02 6803.05,0.16 6791.25,0.45 6776.52,0.85 6758.36,1.50 6741.61,2.23 6720.75,3.40 6705.89,4.35 6696.30,5.04 6684.13,6.00 6666.17,7.49 6649.66,9.06 6629.61,11.30 6606.85,14.11 6587.96,16.50 6568.66,19.10 6555.87,20.87 6539.32,23.13 6515.42,26.43 6493.78,29.41 6468.76,32.85 6446.51,35.92 6425.11,38.83 6396.86,42.73 6370.62,46.32 6344.94,49.83 6317.30,53.64 6297.15,56.40 6285.52,58.00 6274.82,59.50 6256.57,62.05 6244.94,63.62 6229.39,65.74 6207.69,68.71 6180.81,72.39 6155.39,75.85 6131.83,79.06 6109.19,82.11 6086.28,85.24 6057.92,89.13 6030.54,92.85 6007.76,95.94 5984.21,99.13 5953.23,103.34 5936.54,105.58 5912.42,108.85 5886.83,112.36 5863.15,115.64 5835.62,119.35 5810.40,122.80 5788.83,125.77 5768.93,128.53 5748.48,131.38 5728.74,134.05 5708.08,136.86 5685.97,139.85 5667.25,142.35 5641.15,145.89 5617.12,149.13 5602.76,151.04 5582.65,153.75 5569.18,155.61 5548.32,158.42 5532.12,160.63 5524.20,161.70 5511.37,163.46 5493.97,165.82 5475.32,168.36 5448.48,172.04 5425.85,175.16 5401.19,178.51 5383.82,180.86 5366.66,183.15 5343.94,186.19 5315.91,189.93 5288.81,193.55 5256.59,197.89 5238.20,200.39 5221.37,202.67 5208.94,204.36 5187.12,207.34 5172.12,209.40 5151.36,212.18 5125.79,215.66 5097.80,219.50 5059.81,224.68 5027.33,229.12 5002.43,232.56 4981.68,235.42 4957.16,238.74 4937.13,241.45 4914.36,244.55 4896.70,246.93 4873.85,250.01 4850.40,253.17 4827.60,256.29 4805.90,259.23 4786.64,261.86 4765.49,264.74 4740.77,268.09 4714.51,271.62 4693.79,274.45 4675.78,276.91 4661.32,278.89 4648.63,280.63 4633.32,282.74 4622.38,284.25 4607.80,286.28 4591.88,288.47 4576.33,290.59 4562.41,292.48 4551.07,294.02 4540.14,295.51 4528.56,297.08 4514.87,298.95 4499.74,301.00 4483.36,303.24 4466.62,305.52 4449.36,307.84 4433.65,309.95 4420.46,311.72 4404.37,313.89 4384.09,316.65 4368.37,318.78 4352.51,320.93 4335.98,323.21 4322.17,325.10 4305.52,327.39 4295.98,328.67 4284.37,330.25 4275.09,331.52 4263.61,333.08 4248.06,335.16 4231.97,337.35 4211.99,340.05 4194.91,342.38 4182.46,344.07 4171.98,345.49 4160.74,347.02 4144.73,349.19 4129.15,351.33 4112.15,353.63 4104.08,354.74 4090.43,356.58 4077.24,358.36 4061.77,360.45 4047.59,362.35 4036.74,363.78 4023.01,365.57 4010.47,367.20 3999.19,368.66 3987.87,370.12 3976.66,371.59 3967.66,372.72 3956.89,374.09 3942.91,375.75 3930.89,377.04 3921.98,377.99 3911.74,379.02 3900.38,380.06 3889.14,380.94 3876.12,381.82 3864.67,382.51 3852.60,383.20 3839.70,383.95 3829.39,384.53 3819.46,385.06 3810.28,385.55 3801.79,385.90 3788.03,386.30 3777.14,386.46 3767.39,386.52 3755.70,386.52 3743.88,386.46 3732.59,386.39 3726.38,386.38 3722.29,386.32 3709.80,386.20 3702.94,386.11 3697.50,386.03 3692.01,385.90 3682.69,385.73 3672.55,385.48 3662.30,385.23 3650.62,384.93 3641.15,384.67 3635.10,384.53 3629.97,384.39 3623.24,384.23 3615.01,383.98 3606.52,383.76 3599.10,383.58 3593.16,383.42 3584.74,383.18 3574.28,382.88 3563.34,382.59 3556.15,382.37 3550.24,382.23 3541.46,381.98 3531.72,381.71 3519.91,381.37 3507.82,381.03 3496.48,380.71 3485.80,380.41 3476.69,380.18 3467.24,379.88 3456.81,379.60 3445.65,379.28 3434.09,378.93 3422.30,378.59 3406.53,378.13 3387.01,377.59 3368.19,377.04 3353.48,376.62 3340.60,376.28 3328.89,375.95 3319.43,375.69 3308.47,375.42 3301.64,375.21 3290.80,374.93 3279.87,374.67 3271.89,374.44 3263.00,374.18 3251.37,373.86 3235.88,373.41 3220.25,372.97 3202.35,372.48 3191.74,372.20 3183.32,371.95 3171.74,371.63 3161.30,371.36 3146.84,370.95 3130.76,370.52 3117.50,370.18 3100.10,369.68 3083.05,369.20 3065.10,368.71 3051.44,368.34 3042.01,368.04 3034.05,367.80 3025.34,367.55 3011.57,367.20 2997.34,366.80 2984.67,366.45 2973.98,366.17 2964.69,365.91 2954.61,365.64 2945.49,365.40 2935.75,365.14 2924.50,364.82 2910.73,364.43 2897.33,364.04 2883.30,363.65 2872.44,363.38 2860.77,363.05 2851.83,362.80 2840.82,362.50 2829.22,362.18 2815.18,361.80 2801.11,361.43 2788.50,361.07 2773.95,360.66 2756.52,360.17 2739.98,359.72 2723.69,359.24 2710.74,358.89 2700.28,358.59 2693.43,358.40 2685.45,358.18 2675.66,357.91 2664.58,357.60 2655.32,357.40 2643.58,357.06 2631.33,356.73 2617.92,356.37 2600.54,355.91 2587.15,355.53 2572.32,355.12 2560.41,354.80 2549.07,354.50 2534.70,354.13 2522.82,353.80 2503.68,353.25 2493.83,353.01 2483.48,352.71 2472.17,352.42 2456.57,351.97 2439.25,351.49 2421.71,350.97 2401.00,350.37 2381.60,349.82 2363.11,349.28 2343.81,348.74 2329.33,348.34 2318.80,348.04 2307.87,347.74 2295.84,347.41 2282.43,347.07 2271.27,346.75 2260.75,346.46 2250.20,346.18 2239.32,345.87 2228.83,345.57 2215.53,345.23 2205.92,344.92 2192.82,344.61 2181.79,344.32 2169.94,343.99 2157.35,343.65 2143.96,343.28 2132.55,342.99 2122.84,342.73 2113.29,342.46 2103.29,342.18 2091.51,341.87 2080.26,341.57 2068.96,341.26 2057.08,340.91 2048.34,340.69 2039.79,340.44 2029.61,340.17 2021.47,339.95 2010.34,339.62 1999.94,339.32 1985.73,338.92 1975.86,338.68 1965.08,338.38 1952.73,338.01 1943.04,337.74 1933.90,337.48 1923.90,337.19 1913.64,336.90 1905.95,336.70 1896.39,336.43 1885.79,336.15 1874.42,335.82 1862.89,335.49 1854.83,335.28 1845.64,335.01 1834.96,334.72 1828.57,334.53 1820.45,334.29 1808.42,333.95 1795.71,333.59 1783.37,333.23 1771.88,332.87 1759.72,332.50 1745.31,332.13 1728.12,331.64 1712.53,331.24 1698.78,330.87 1682.79,330.43 1664.80,329.92 1645.50,329.42 1626.86,328.89 1614.80,328.57 1596.03,328.05 1578.21,327.53 1562.70,327.10 1547.35,326.64 1536.39,326.36 1524.23,326.02 1509.42,325.61 1491.99,325.10 1478.77,324.72 1466.41,324.37 1455.75,324.09 1441.91,323.72 1428.12,323.32 1411.96,322.88 1398.84,322.55 1383.68,322.16 1364.84,321.66 1345.91,321.15 1330.64,320.72 1317.74,320.38 1300.68,319.90 1285.17,319.48 1271.08,319.09 1256.94,318.70 1244.78,318.35 1230.05,317.97 1219.22,317.66 1209.99,317.40 1197.26,317.02 1183.33,316.65 1169.80,316.27 1155.66,315.85 1151.65,315.73 1144.82,315.54 1137.70,315.35 1126.90,315.04 1123.66,314.95 1115.99,314.72 1109.82,314.56 1098.68,314.26 1088.86,313.94 1074.20,313.55 1062.58,313.18 1052.34,312.93 1038.86,312.55 1025.18,312.15 1012.02,311.74 997.56,311.36 987.32,311.07 974.61,310.72 962.37,310.39 949.49,310.04 935.83,309.67 924.05,309.35 912.39,309.04 902.45,308.78 890.20,308.44 876.06,308.08 863.30,307.77 853.87,307.53 844.88,307.30 837.43,307.09 830.05,306.88 818.27,306.57 807.03,306.27 791.58,305.84 779.40,305.50 768.09,305.20 754.44,304.81 744.93,304.55 733.31,304.25 721.73,303.90 705.78,303.46 692.87,303.09 676.76,302.63 663.80,302.29 652.24,301.96 640.71,301.66 624.83,301.22 609.53,300.80 597.57,300.47 585.06,300.11 573.97,299.80 560.48,299.41 551.37,299.15 542.81,298.92 533.07,298.63 522.94,298.36 515.09,298.10 505.88,297.84 496.51,297.58 490.27,297.40 482.52,297.19 473.79,296.93 464.87,296.69 457.88,296.49 450.32,296.28 444.05,296.11 436.51,295.89 429.16,295.70 420.88,295.48 411.95,295.24 402.99,295.01 393.28,294.75 385.57,294.53 378.07,294.33 370.88,294.15 361.83,293.91 351.58,293.62 341.17,293.30 334.25,293.11 328.15,292.93 319.28,292.67 309.44,292.35 301.00,292.11 292.24,291.86 283.50,291.61 276.41,291.37 269.51,291.15 260.94,290.88 253.95,290.66 243.45,290.29 235.14,290.03 227.60,289.76 219.29,289.49 210.79,289.16 203.04,288.88 195.45,288.60 188.59,288.31 179.32,287.93 170.38,287.63 159.34,287.19 145.02,286.64 136.06,286.31 125.30,285.89 114.61,285.46 105.72,285.11 98.17,284.80 89.48,284.44 79.89,283.94 71.21,283.45 61.08,282.90 51.21,282.32 40.80,281.72 28.26,280.95 18.07,280.26 11.38,279.83 1.90,279.18 0.00,279.04">
        <lane id="201.0_0" index="0" disallow="all" speed="13.89" length="11613.08" width="3.66" shape="11502.95,426.20 11398.71,416.84 11311.18,408.95 11242.87,402.85 11178.71,397.10 11131.01,392.82 11081.76,388.32 11028.82,383.48 10969.42,378.01 10919.63,373.57 10861.64,368.42 10823.85,365.03 10775.37,360.63 10711.31,354.90 10609.32,345.65 10545.17,339.80 10479.11,333.76 10416.94,328.07 10359.29,322.83 10243.94,312.39 10177.33,306.35 10128.41,301.93 10071.07,296.70 10023.05,292.25 9983.16,288.62 9912.90,282.24 9855.25,277.03 9798.49,271.95 9733.01,266.00 9700.55,263.07 9671.56,260.39 9613.20,255.06 9564.94,250.64 9489.83,243.86 9392.08,234.94 9388.14,234.58 9373.91,233.30 9362.53,232.27 9350.11,231.13 9329.31,229.22 9312.19,227.66 9277.82,224.50 9249.07,221.87 9215.84,218.82 9190.56,216.50 9160.54,213.79 9141.82,212.09 9114.82,209.67 9076.37,206.17 9038.22,202.70 9002.74,199.46 8955.37,195.17 8909.07,190.94 8899.23,190.05 8888.40,189.06 8878.26,188.15 8865.03,186.93 8848.97,185.45 8841.67,184.76 8828.19,183.53 8816.27,182.44 8804.93,181.42 8789.69,180.07 8770.47,178.34 8751.51,176.67 8735.58,175.27 8716.79,173.62 8693.57,171.51 8666.24,169.04 8639.60,166.62 8616.31,164.49 8601.54,163.11 8592.51,162.28 8585.08,161.58 8572.13,160.36 8555.75,158.82 8543.53,157.70 8528.05,156.30 8516.35,155.23 8500.95,153.81 8486.16,152.43 8472.65,151.20 8456.61,149.76 8442.63,148.49 8430.90,147.44 8422.67,146.69 8413.14,145.81 8400.06,144.64 8386.01,143.38 8367.73,141.71 8348.26,139.96 8334.42,138.69 8321.91,137.59 8300.64,135.68 8287.16,134.41 8268.09,132.71 8252.43,131.25 8233.99,129.61 8216.02,127.97 8193.63,125.95 8161.04,123.01 8140.55,121.15 8117.99,119.09 8099.73,117.44 8079.42,115.60 8059.03,113.73 8033.41,111.40 8012.37,109.48 8001.26,108.46 7988.46,107.27 7974.96,106.02 7963.73,104.97 7948.93,103.66 7931.84,102.12 7914.54,100.58 7892.74,98.58 7869.65,96.44 7845.23,94.16 7830.29,92.80 7803.40,90.31 7787.58,88.83 7769.81,87.24 7746.87,85.17 7722.47,82.95 7694.54,80.44 7654.96,76.87 7615.22,73.27 7562.23,68.47 7528.34,65.39 7499.90,62.75 7470.79,60.08 7434.69,56.74 7398.28,53.48 7373.32,51.19 7346.46,48.82 7323.00,46.68 7310.76,45.59 7296.64,44.29 7271.66,42.06 7243.63,39.55 7212.20,36.69 7191.41,34.79 7180.87,33.84 7164.98,32.39 7148.00,30.84 7124.76,28.72 7106.54,27.02 7081.45,24.77 7064.23,23.18 7029.85,20.05 7004.62,17.77 6986.40,16.22 6966.58,14.62 6952.22,13.59 6930.94,12.34 6911.53,11.27 6899.82,10.66 6880.52,9.92 6860.44,9.42 6847.37,9.20 6832.22,9.15 6818.68,9.17 6803.20,9.31 6791.49,9.60 6776.81,10.00 6758.72,10.64 6742.07,11.37 6721.30,12.53 6706.50,13.48 6696.99,14.16 6684.87,15.12 6666.98,16.60 6650.60,18.16 6630.68,20.39 6607.98,23.19 6589.15,25.57 6569.89,28.17 6557.12,29.93 6540.57,32.19 6516.67,35.49 6495.03,38.47 6470.01,41.91 6447.75,44.99 6426.35,47.90 6398.11,51.79 6371.86,55.39 6346.18,58.89 6318.55,62.70 6298.39,65.47 6286.78,67.06 6276.09,68.56 6257.82,71.11 6246.17,72.69 6230.63,74.81 6208.93,77.78 6182.05,81.46 6156.62,84.92 6133.06,88.13 6110.42,91.18 6087.52,94.31 6059.16,98.20 6031.77,101.92 6008.99,105.01 5985.44,108.20 5954.46,112.41 5937.76,114.65 5913.66,117.92 5888.08,121.42 5864.39,124.71 5836.85,128.42 5811.64,131.87 5790.08,134.83 5770.19,137.59 5749.73,140.44 5729.97,143.12 5709.31,145.93 5687.19,148.92 5668.47,151.42 5642.38,154.96 5618.34,158.20 5603.98,160.11 5583.88,162.82 5570.41,164.68 5549.55,167.49 5533.35,169.70 5525.44,170.77 5512.61,172.53 5495.20,174.89 5476.56,177.43 5449.73,181.10 5427.09,184.23 5402.42,187.58 5385.04,189.93 5367.87,192.22 5345.15,195.26 5317.12,199.00 5290.03,202.62 5257.82,206.96 5239.43,209.46 5222.60,211.74 5210.18,213.43 5188.36,216.41 5173.35,218.47 5152.59,221.25 5127.03,224.73 5099.04,228.57 5061.05,233.75 5028.58,238.18 5003.68,241.62 4982.92,244.49 4958.39,247.81 4938.36,250.52 4915.59,253.62 4897.92,256.00 4875.07,259.08 4851.63,262.24 4828.83,265.36 4807.13,268.30 4787.88,270.93 4766.72,273.81 4741.99,277.16 4715.74,280.69 4695.03,283.52 4677.02,285.98 4662.56,287.96 4649.88,289.69 4634.57,291.80 4623.64,293.31 4609.05,295.34 4593.12,297.54 4577.56,299.66 4563.64,301.55 4552.30,303.09 4541.37,304.58 4529.79,306.15 4516.10,308.02 4500.97,310.07 4484.60,312.31 4467.85,314.59 4450.58,316.91 4434.87,319.02 4421.68,320.79 4405.60,322.96 4385.32,325.72 4369.60,327.85 4353.75,330.00 4337.23,332.27 4323.41,334.17 4306.76,336.46 4297.21,337.74 4285.61,339.32 4276.33,340.59 4264.83,342.15 4249.28,344.23 4233.20,346.42 4213.22,349.12 4196.14,351.45 4183.69,353.14 4173.21,354.56 4161.97,356.09 4145.97,358.26 4130.39,360.40 4113.38,362.70 4105.31,363.81 4091.65,365.65 4078.46,367.43 4062.99,369.52 4048.80,371.42 4037.93,372.85 4024.19,374.64 4011.65,376.27 4000.36,377.73 3989.05,379.19 3977.83,380.67 3968.81,381.80 3958.01,383.17 3943.94,384.84 3931.86,386.14 3922.92,387.09 3912.62,388.13 3901.15,389.18 3889.81,390.07 3876.71,390.95 3865.21,391.64 3853.13,392.33 3840.22,393.09 3829.89,393.67 3819.95,394.20 3810.71,394.69 3802.11,395.04 3788.23,395.45 3777.24,395.61 3767.42,395.67 3755.68,395.67 3743.83,395.61 3732.55,395.54 3726.32,395.53 3722.19,395.47 3709.70,395.35 3702.81,395.26 3697.32,395.18 3691.82,395.05 3682.49,394.88 3672.33,394.63 3662.07,394.38 3650.38,394.08 3640.91,393.82 3634.87,393.68 3629.74,393.54 3622.99,393.38 3614.75,393.13 3606.29,392.91 3598.87,392.73 3592.91,392.57 3584.48,392.33 3574.03,392.03 3563.08,391.74 3555.90,391.52 3550.00,391.38 3541.20,391.13 3531.46,390.86 3519.65,390.52 3507.56,390.18 3496.22,389.86 3485.56,389.56 3476.43,389.33 3466.97,389.03 3456.56,388.75 3445.38,388.43 3433.82,388.08 3422.03,387.74 3406.27,387.28 3386.75,386.74 3367.93,386.19 3353.23,385.77 3340.35,385.43 3328.64,385.10 3319.19,384.84 3308.22,384.57 3301.39,384.36 3290.57,384.08 3279.63,383.82 3271.62,383.59 3262.74,383.33 3251.11,383.01 3235.62,382.56 3220.00,382.12 3202.10,381.63 3191.49,381.35 3183.06,381.10 3171.50,380.78 3161.05,380.51 3146.59,380.10 3130.52,379.67 3117.25,379.33 3099.84,378.83 3082.80,378.35 3064.85,377.86 3051.17,377.49 3041.73,377.19 3033.78,376.95 3025.10,376.70 3011.33,376.35 2997.09,375.95 2984.42,375.60 2973.73,375.32 2964.44,375.06 2954.37,374.79 2945.25,374.55 2935.50,374.29 2924.24,373.97 2910.47,373.58 2897.07,373.19 2883.06,372.80 2872.20,372.53 2860.51,372.20 2851.58,371.95 2840.57,371.65 2828.97,371.33 2814.94,370.95 2800.86,370.58 2788.24,370.22 2773.69,369.81 2756.27,369.32 2739.72,368.87 2723.43,368.39 2710.49,368.04 2700.02,367.74 2693.18,367.55 2685.20,367.33 2675.41,367.06 2664.35,366.75 2655.08,366.55 2643.32,366.21 2631.08,365.88 2617.68,365.52 2600.29,365.06 2586.89,364.68 2572.07,364.27 2560.17,363.95 2548.83,363.65 2534.46,363.28 2522.56,362.95 2503.43,362.40 2493.59,362.16 2483.23,361.86 2471.92,361.57 2456.31,361.12 2438.99,360.64 2421.44,360.12 2400.74,359.52 2381.34,358.97 2362.85,358.43 2343.56,357.89 2329.07,357.49 2318.54,357.19 2307.62,356.89 2295.60,356.56 2282.18,356.22 2271.01,355.90 2260.50,355.61 2249.95,355.33 2239.06,355.02 2228.58,354.72 2215.27,354.38 2205.66,354.07 2192.59,353.76 2181.54,353.47 2169.69,353.14 2157.10,352.80 2143.72,352.43 2132.31,352.14 2122.59,351.88 2113.03,351.61 2103.04,351.33 2091.27,351.02 2080.01,350.72 2068.70,350.41 2056.83,350.06 2048.09,349.84 2039.54,349.59 2029.37,349.32 2021.21,349.10 2010.07,348.77 1999.68,348.47 1985.49,348.07 1975.62,347.83 1964.82,347.53 1952.46,347.16 1942.78,346.89 1933.64,346.63 1923.64,346.34 1913.39,346.05 1905.70,345.85 1896.14,345.58 1885.54,345.30 1874.16,344.97 1862.64,344.64 1854.58,344.43 1845.38,344.16 1834.70,343.87 1828.30,343.68 1820.19,343.44 1808.16,343.10 1795.45,342.74 1783.09,342.38 1771.60,342.02 1759.47,341.65 1745.06,341.28 1727.87,340.79 1712.29,340.39 1698.53,340.02 1682.53,339.58 1664.55,339.07 1645.25,338.57 1626.61,338.04 1614.55,337.72 1595.77,337.20 1577.95,336.68 1562.44,336.25 1547.09,335.79 1536.14,335.51 1523.98,335.17 1509.16,334.76 1491.72,334.25 1478.51,333.87 1466.16,333.52 1455.51,333.24 1441.66,332.87 1427.86,332.47 1411.72,332.03 1398.61,331.70 1383.44,331.31 1364.60,330.81 1345.66,330.30 1330.39,329.87 1317.49,329.53 1300.43,329.05 1284.92,328.63 1270.83,328.24 1256.68,327.85 1244.53,327.50 1229.80,327.12 1218.96,326.81 1209.72,326.55 1197.00,326.17 1183.08,325.80 1169.54,325.42 1155.39,325.00 1151.39,324.88 1144.57,324.69 1137.44,324.50 1126.64,324.19 1123.39,324.10 1115.73,323.87 1109.58,323.71 1098.41,323.41 1088.59,323.09 1073.94,322.70 1062.32,322.33 1052.10,322.08 1038.60,321.70 1024.90,321.30 1011.76,320.89 997.31,320.51 987.07,320.22 974.36,319.87 962.12,319.54 949.24,319.19 935.58,318.82 923.80,318.50 912.15,318.19 902.20,317.93 889.96,317.59 875.83,317.23 863.07,316.92 853.64,316.68 844.64,316.45 837.17,316.24 829.80,316.03 818.03,315.72 806.78,315.42 791.33,314.99 779.15,314.65 767.84,314.35 754.18,313.96 744.69,313.70 733.05,313.40 721.47,313.05 705.52,312.61 692.61,312.24 676.51,311.78 663.55,311.44 651.99,311.11 640.46,310.81 624.58,310.37 609.28,309.95 597.31,309.62 584.80,309.26 573.71,308.95 560.22,308.56 551.12,308.30 542.55,308.07 532.81,307.78 522.67,307.51 514.81,307.25 505.62,306.99 496.25,306.73 490.02,306.55 482.26,306.34 473.53,306.08 464.62,305.84 457.62,305.64 450.07,305.43 443.79,305.26 436.26,305.04 428.92,304.85 420.64,304.63 411.71,304.39 402.75,304.16 393.03,303.90 385.32,303.68 377.83,303.48 370.64,303.30 361.58,303.06 351.31,302.77 340.90,302.45 333.99,302.26 327.88,302.08 319.00,301.82 309.16,301.50 300.74,301.26 291.98,301.01 283.22,300.76 276.11,300.52 269.22,300.30 260.65,300.03 253.64,299.80 243.14,299.43 234.83,299.17 227.29,298.90 218.96,298.63 210.45,298.30 202.71,298.02 195.09,297.74 188.21,297.45 178.98,297.07 170.04,296.77 158.98,296.33 144.67,295.78 135.71,295.45 124.94,295.03 114.25,294.60 105.35,294.25 97.79,293.94 89.05,293.58 79.40,293.08 70.71,292.59 60.56,292.04 50.68,291.45 40.25,290.85 27.67,290.08 17.46,289.39 10.77,288.96 1.27,288.31 -0.67,288.17" type="shoulder"/>