<?xml version='1.0' encoding='utf-8'?>
<edges>
    <edge id="122.0" from="node_122_start" to="junction_65" numLanes="3" speed="13.89" type="town" shape="589040.30,3267898.90 589049.80,3267902.52 589049.80,3267902.52 589057.51,3267905.45 589057.51,3267905.45 589067.97,3267909.44 589067.97,3267909.44 589079.92,3267914.01 589079.92,3267914.01 589091.63,3267918.54 589091.63,3267918.54 589108.16,3267924.86 589108.16,3267924.86 589128.27,3267932.56 589128.27,3267932.56 589150.58,3267941.05 589150.58,3267941.05 589170.05,3267948.54 589170.05,3267948.54 589202.03,3267960.79 589202.03,3267960.79 589236.97,3267974.12 589236.97,3267974.12 589285.40,3267992.71 589285.40,3267992.71 589315.16,3268004.03 589315.16,3268004.03 589357.69,3268020.26 589357.69,3268020.26 589389.23,3268032.33 589389.23,3268032.33 589446.28,3268053.92 589446.28,3268053.92 589482.14,3268067.73 589482.14,3268067.73 589509.97,3268078.31 589509.97,3268078.31 589535.52,3268088.16 589535.52,3268088.16 589545.12,3268091.89">
        <lane index="0" width="3.66" type="shoulder" disallow="all" />
        <lane index="1" width="3.66" />
        <lane index="2" width="3.66" />
    </edge>
    <edge id="124.0" from="node_124_start" to="node_122_start" numLanes="2" speed="13.89" type="town" shape="588980.89,3267876.35 589009.76,3267887.35 589009.76,3267887.35 589026.50,3267893.69 589026.50,3267893.69 589040.30,3267898.90">
        <lane index="0" width="3.66" />
        <lane index="1" width="3.66" />
    </edge>
    <edge id="125.0" from="junction_65" to="node_125_end" numLanes="1" speed="13.89" type="town" shape="589604.64,3268106.83 589610.21,3268108.35 589610.21,3268108.35 589620.07,3268110.91 589620.07,3268110.91 589630.34,3268113.56 589630.34,3268113.56 589641.23,3268116.21 589641.23,3268116.21 589652.00,3268118.71 589652.00,3268118.71 589662.61,3268120.93 589662.61,3268120.93 589673.03,3268122.79 589673.03,3268122.79 589677.97,3268123.66 589677.97,3268123.66 589683.61,3268124.58 589683.61,3268124.58 589687.56,3268124.91 589687.56,3268124.91 589690.89,3268124.53 589690.89,3268124.53 589694.07,3268123.88 589694.07,3268123.88 589697.31,3268122.67">
        <lane index="0" width="3.66" />
    </edge>
    <edge id="126.0" from="node_124_start" to="node_122_start" numLanes="1" speed="13.89" type="town" shape="588983.12,3267869.81 589041.55,3267895.54">
        <lane index="0" width="3.66" />
    </edge>
    <edge id="128.0" from="node_128_start" to="node_128_end" numLanes="3" speed="13.89" type="town" shape="589666.12,3268138.02 589675.24,3268141.55 589675.24,3268141.55 589689.13,3268146.87 589689.13,3268146.87 589702.52,3268151.94 589702.52,3268151.94 589713.86,3268156.27 589713.86,3268156.27 589727.46,3268161.49 589727.46,3268161.49 589752.87,3268171.25 589752.87,3268171.25 589769.08,3268177.49 589769.08,3268177.49 589784.82,3268183.52 589784.82,3268183.52 589799.48,3268189.12">
        <lane index="0" width="3.66" type="shoulder" disallow="all" />
        <lane index="1" width="3.66" />
        <lane index="2" width="3.66" />
    </edge>
    <edge id="131.0" from="junction_10" to="node_131_end" numLanes="3" speed="13.89" type="town" shape="590139.67,3268319.11 590164.44,3268328.56 590164.44,3268328.56 590185.65,3268336.65 590185.65,3268336.65 590208.10,3268345.18 590208.10,3268345.18 590231.74,3268354.29 590231.74,3268354.29 590251.87,3268361.95">
        <lane index="0" width="3.66" />
        <lane index="1" width="3.66" />
        <lane index="2" width="3.66" />
    </edge>
    <edge id="132.0" from="node_132_start" to="node_132_end" numLanes="3" speed="13.89" type="town" shape="589870.31,3268216.00 589886.10,3268222.06 589886.10,3268222.06 589900.37,3268227.52 589900.37,3268227.52 589906.08,3268229.68">
        <lane index="0" width="3.66" type="shoulder" disallow="all" />
        <lane index="1" width="3.66" />
        <lane index="2" width="3.66" />
    </edge>
    <edge id="133.0" from="node_133_start" to="junction_66" numLanes="3" speed="13.89" type="town" shape="590323.16,3268389.23 590329.77,3268391.76 590329.77,3268391.76 590338.67,3268395.20 590338.67,3268395.20 590351.06,3268399.93 590351.06,3268399.93 590362.69,3268404.38 590362.69,3268404.38 590369.69,3268407.08 590369.69,3268407.08 590378.25,3268410.36 590378.25,3268410.36 590389.56,3268414.69 590389.56,3268414.69 590404.79,3268420.55 590404.79,3268420.55 590416.30,3268425.04 590416.30,3268425.04 590435.02,3268432.21 590435.02,3268432.21 590453.17,3268439.14 590453.17,3268439.14 590466.26,3268444.15 590466.26,3268444.15 590476.25,3268447.92 590476.25,3268447.92 590488.65,3268452.62 590488.65,3268452.62 590501.99,3268457.75 590501.99,3268457.75 590514.85,3268462.65 590514.85,3268462.65 590531.15,3268468.88 590531.15,3268468.88 590547.64,3268475.18 590547.64,3268475.18 590568.16,3268483.08 590568.16,3268483.08 590580.95,3268487.99 590580.95,3268487.99 590595.43,3268493.47 590595.43,3268493.47 590612.46,3268499.99 590612.46,3268499.99 590622.84,3268503.98 590622.84,3268503.98 590641.93,3268511.27 590641.93,3268511.27 590668.50,3268521.45 590668.50,3268521.45 590695.49,3268531.68 590695.49,3268531.68 590729.71,3268544.70 590729.71,3268544.70 590763.45,3268557.70 590763.45,3268557.70 590778.40,3268563.45 590778.40,3268563.45 590799.02,3268571.32 590799.02,3268571.32 590819.12,3268579.05 590819.12,3268579.05 590845.31,3268589.00 590845.31,3268589.00 590881.23,3268602.69 590881.23,3268602.69 590930.11,3268621.51 590930.11,3268621.51 590962.05,3268633.81 590962.05,3268633.81 590996.81,3268647.15 590996.81,3268647.15 591041.94,3268664.38 591041.94,3268664.38 591072.03,3268675.72 591072.03,3268675.72 591115.86,3268692.40 591115.86,3268692.40 591147.20,3268704.41 591147.20,3268704.41 591178.08,3268716.27 591178.08,3268716.27 591223.73,3268733.85 591223.73,3268733.85 591266.11,3268750.04 591266.11,3268750.04 591297.59,3268762.13 591297.59,3268762.13 591327.19,3268773.54 591327.19,3268773.54 591362.62,3268787.09 591362.62,3268787.09 591398.35,3268800.75 591398.35,3268800.75 591430.00,3268812.75 591430.00,3268812.75 591463.32,3268825.49 591463.32,3268825.49 591467.55,3268827.12 591467.55,3268827.12 591484.72,3268833.70 591484.72,3268833.70 591506.32,3268841.91 591506.32,3268841.91 591526.74,3268849.72 591526.74,3268849.72 591540.88,3268855.07 591540.88,3268855.07 591560.92,3268862.73 591560.92,3268862.73 591585.13,3268871.94 591585.13,3268871.94 591608.49,3268880.87 591608.49,3268880.87 591627.83,3268888.24 591627.83,3268888.24 591656.98,3268899.41 591656.98,3268899.41 591688.31,3268911.47 591688.31,3268911.47 591717.13,3268922.46 591717.13,3268922.46 591759.02,3268938.61 591759.02,3268938.61 591795.04,3268952.30 591795.04,3268952.30 591842.12,3268970.36 591842.12,3268970.36 591872.95,3268982.04 591872.95,3268982.04 591906.02,3268994.66 591906.02,3268994.66 591950.46,3269011.54 591950.46,3269011.54 591982.47,3269023.68 591982.47,3269023.68 592007.69,3269033.37 592007.69,3269033.37 592037.62,3269044.80 592037.62,3269044.80 592057.80,3269052.47 592057.80,3269052.47 592126.98,3269079.01 592126.98,3269079.01 592162.99,3269092.76 592162.99,3269092.76 592192.57,3269104.07 592192.57,3269104.07 592214.24,3269112.27 592214.24,3269112.27 592237.90,3269121.29 592237.90,3269121.29 592269.83,3269133.46 592269.83,3269133.46 592296.81,3269143.71 592296.81,3269143.71 592321.56,3269153.18 592321.56,3269153.18 592348.07,3269163.49 592348.07,3269163.49 592364.87,3269170.00 592364.87,3269170.00 592387.05,3269178.69 592387.05,3269178.69 592409.16,3269187.49 592409.16,3269187.49 592427.46,3269195.08">
        <lane index="0" width="3.66" type="shoulder" disallow="all" />
        <lane index="1" width="3.66" />
        <lane index="2" width="3.66" />
    </edge>
    <edge id="134.0" from="node_128_end" to="node_132_start" numLanes="3" speed="13.89" type="town" shape="589799.48,3268189.12 589805.59,3268191.41 589805.59,3268191.41 589815.45,3268195.14 589815.45,3268195.14 589831.65,3268201.28 589831.65,3268201.28 589846.47,3268206.94 589846.47,3268206.94 589865.63,3268214.20 589865.63,3268214.20 589870.31,3268216.00">
        <lane index="0" width="3.66" type="shoulder" disallow="all" />
        <lane index="1" width="3.66" />
        <lane index="2" width="3.66" />
    </edge>
    <edge id="139.0" from="node_131_end" to="node_133_start" numLanes="2" speed="13.89" type="town" shape="590251.87,3268361.95 590265.29,3268367.04 590265.29,3268367.04 590279.74,3268372.53 590279.74,3268372.53 590300.91,3268380.69 590300.91,3268380.69 590323.16,3268389.23">
        <lane index="0" width="3.66" />
        <lane index="1" width="3.66" />
    </edge>
    <edge id="141.0" from="junction_11" to="node_124_start" numLanes="3" speed="13.89" type="town" shape="588860.42,3267830.31 588868.55,3267833.41 588868.55,3267833.41 588875.20,3267835.97 588875.20,3267835.97 588883.32,3267839.06 588883.32,3267839.06 588890.18,3267841.67 588890.18,3267841.67 588900.85,3267845.74 588900.85,3267845.74 588917.48,3267852.04 588917.48,3267852.04 588931.87,3267857.54 588931.87,3267857.54 588949.91,3267864.46 588949.91,3267864.46 588967.85,3267871.31 588967.85,3267871.31 588980.89,3267876.35">
        <lane index="0" width="3.66" />
        <lane index="1" width="3.66" />
        <lane index="2" width="3.66" />
    </edge>
    <edge id="143.0" from="node_132_end" to="node_143_end" numLanes="3" speed="13.89" type="town" shape="589906.08,3268229.68 589919.29,3268234.74 589919.29,3268234.74 589934.98,3268240.75 589934.98,3268240.75 589949.25,3268246.23 589949.25,3268246.23 589970.33,3268254.29 589970.33,3268254.29 589994.39,3268263.48">
        <lane index="0" width="3.66" type="shoulder" disallow="all" />
        <lane index="1" width="3.66" />
        <lane index="2" width="3.66" />
    </edge>
    <edge id="144.0" from="node_144_start" to="junction_11" numLanes="3" speed="13.89" type="town" shape="588281.72,3267627.69 588293.47,3267631.29 588293.47,3267631.29 588300.73,3267633.58 588300.73,3267633.58 588308.30,3267635.93 588308.30,3267635.93 588316.35,3267638.45 588316.35,3267638.45 588323.58,3267640.68 588323.58,3267640.68 588333.57,3267643.79 588333.57,3267643.79 588345.17,3267647.34 588345.17,3267647.34 588361.14,3267652.34 588361.14,3267652.34 588375.57,3267656.86 588375.57,3267656.86 588392.45,3267662.06 588392.45,3267662.06 588411.16,3267667.83 588411.16,3267667.83 588430.89,3267673.92 588430.89,3267673.92 588446.47,3267678.70 588446.47,3267678.70 588461.86,3267683.46 588461.86,3267683.46 588480.74,3267689.29 588480.74,3267689.29 588501.29,3267695.64 588501.29,3267695.64 588516.57,3267700.65 588516.57,3267700.65 588530.48,3267705.38 588530.48,3267705.38 588543.72,3267710.02 588543.72,3267710.02 588557.71,3267715.10 588557.71,3267715.10 588573.79,3267721.07 588573.79,3267721.07 588582.64,3267724.35 588582.64,3267724.35 588595.94,3267729.37 588595.94,3267729.37 588618.95,3267738.00 588618.95,3267738.00 588635.23,3267744.13 588635.23,3267744.13 588650.58,3267749.93 588650.58,3267749.93 588675.30,3267759.33 588675.30,3267759.33 588694.39,3267766.56 588694.39,3267766.56 588727.06,3267779.10 588727.06,3267779.10 588763.47,3267793.13 588763.47,3267793.13 588797.85,3267806.34">
        <lane index="0" width="3.66" type="shoulder" disallow="all" />
        <lane index="1" width="3.66" />
        <lane index="2" width="3.66" />
    </edge>
    <edge id="145.0" from="node_143_end" to="junction_10" numLanes="3" speed="13.89" type="town" shape="589994.39,3268263.48 590002.50,3268266.58 590002.50,3268266.58 590017.70,3268272.43 590017.70,3268272.43 590040.13,3268281.06 590040.13,3268281.06 590050.97,3268285.27 590050.97,3268285.27 590059.65,3268288.60 590059.65,3268288.60 590067.49,3268291.57 590067.49,3268291.57 590076.92,3268295.18 590076.92,3268295.18 590088.97,3268299.71 590088.97,3268299.71 590094.28,3268301.72">
        <lane index="0" width="3.66" type="shoulder" disallow="all" />
        <lane index="1" width="3.66" />
        <lane index="2" width="3.66" />
    </edge>
    <edge id="146.0" from="junction_65" to="node_128_start" numLanes="2" speed="13.89" type="town" shape="589601.81,3268113.49 589620.42,3268120.58 589620.42,3268120.58 589643.28,3268129.35 589643.28,3268129.35 589652.87,3268133.01 589652.87,3268133.01 589666.12,3268138.02">
        <lane index="0" width="3.66" />
        <lane index="1" width="3.66" />
    </edge>
    <edge id="147.0" from="node_147_start" to="junction_67" numLanes="3" speed="13.89" type="town" shape="586385.69,3267041.36 586390.69,3267042.91 586390.69,3267042.91 586396.42,3267044.65 586396.42,3267044.65 586403.07,3267046.72 586403.07,3267046.72 586408.10,3267048.29 586408.10,3267048.29 586413.37,3267049.94 586413.37,3267049.94 586418.95,3267051.71 586418.95,3267051.71 586425.80,3267053.84 586425.80,3267053.84 586430.59,3267055.34 586430.59,3267055.34 586433.50,3267056.22 586433.50,3267056.22 586437.41,3267057.46 586437.41,3267057.46 586441.15,3267058.59 586441.15,3267058.59 586445.51,3267059.94 586445.51,3267059.94 586453.06,3267062.27 586453.06,3267062.27 586459.62,3267064.28 586459.62,3267064.28 586467.19,3267066.61 586467.19,3267066.61 586477.37,3267069.72 586477.37,3267069.72 586489.33,3267073.41 586489.33,3267073.41 586499.89,3267076.72 586499.89,3267076.72 586511.95,3267080.45 586511.95,3267080.45 586527.05,3267085.10 586527.05,3267085.10 586541.80,3267089.68 586541.80,3267089.68 586561.20,3267095.74 586561.20,3267095.74 586582.34,3267102.28 586582.34,3267102.28 586594.88,3267106.21 586594.88,3267106.21 586611.66,3267111.45 586611.66,3267111.45 586628.06,3267116.60 586628.06,3267116.60 586646.43,3267122.33 586646.43,3267122.33 586656.99,3267125.62 586656.99,3267125.62 586671.49,3267129.96 586671.49,3267129.96 586686.62,3267134.60 586686.62,3267134.60 586699.05,3267138.45 586699.05,3267138.45 586712.92,3267142.79 586712.92,3267142.79 586728.00,3267147.43 586728.00,3267147.43 586742.68,3267151.96 586742.68,3267151.96 586755.45,3267155.92 586755.45,3267155.92 586769.23,3267160.17 586769.23,3267160.17 586779.93,3267163.43 586779.93,3267163.43 586788.89,3267166.22 586788.89,3267166.22 586801.27,3267169.99 586801.27,3267169.99 586813.34,3267173.72 586813.34,3267173.72 586825.04,3267177.37 586825.04,3267177.37 586835.01,3267180.46 586835.01,3267180.46 586845.49,3267183.71 586845.49,3267183.71 586855.85,3267186.97 586855.85,3267186.97 586868.73,3267190.96 586868.73,3267190.96 586889.73,3267197.44 586889.73,3267197.44 586903.79,3267201.81 586903.79,3267201.81 586920.96,3267207.14 586920.96,3267207.14 586937.27,3267212.11 586937.27,3267212.11 586946.56,3267214.97 586946.56,3267214.97 586964.61,3267220.55 586964.61,3267220.55 586980.39,3267225.44 586980.39,3267225.44 586999.88,3267231.56 586999.88,3267231.56 587014.91,3267236.12 587014.91,3267236.12 587033.31,3267241.83 587033.31,3267241.83 587052.52,3267247.76 587052.52,3267247.76 587069.37,3267252.95 587069.37,3267252.95 587088.60,3267258.87 587088.60,3267258.87 587106.89,3267264.51 587106.89,3267264.51 587121.11,3267268.94 587121.11,3267268.94 587141.60,3267275.27 587141.60,3267275.27 587170.81,3267284.25 587170.81,3267284.25 587208.36,3267295.83 587208.36,3267295.83 587244.18,3267306.88 587244.18,3267306.88 587274.33,3267316.13 587274.33,3267316.13 587299.65,3267323.94 587299.65,3267323.94 587327.10,3267332.42 587327.10,3267332.42 587348.93,3267339.21 587348.93,3267339.21 587370.68,3267345.99 587370.68,3267345.99 587406.16,3267357.04 587406.16,3267357.04 587432.82,3267365.27 587432.82,3267365.27 587452.09,3267371.27 587452.09,3267371.27 587476.09,3267378.74 587476.09,3267378.74 587499.62,3267386.03 587499.62,3267386.03 587518.84,3267391.94 587518.84,3267391.94 587540.79,3267398.79 587540.79,3267398.79 587567.92,3267407.28 587567.92,3267407.28 587594.30,3267415.46 587594.30,3267415.46 587611.62,3267420.76 587611.62,3267420.76 587633.46,3267427.38 587633.46,3267427.38 587649.56,3267432.34 587649.56,3267432.34 587666.38,3267437.47 587666.38,3267437.47 587682.42,3267442.42 587682.42,3267442.42 587700.29,3267447.88 587700.29,3267447.88 587714.81,3267452.40 587714.81,3267452.40 587728.15,3267456.56 587728.15,3267456.56 587740.25,3267460.33 587740.25,3267460.33 587755.97,3267465.20 587755.97,3267465.20 587773.19,3267470.47 587773.19,3267470.47 587789.54,3267475.56 587789.54,3267475.56 587807.08,3267480.97 587807.08,3267480.97 587826.65,3267486.98 587826.65,3267486.98 587838.20,3267490.52 587838.20,3267490.52 587851.52,3267494.69 587851.52,3267494.69 587869.88,3267500.38 587869.88,3267500.38 587889.06,3267506.33 587889.06,3267506.33 587909.08,3267512.44 587909.08,3267512.44 587927.55,3267518.07 587927.55,3267518.07 587948.93,3267524.69 587948.93,3267524.69 587961.92,3267528.70 587961.92,3267528.70 587982.23,3267535.11 587982.23,3267535.11 588003.61,3267541.81 588003.61,3267541.81 588025.29,3267548.50 588025.29,3267548.50 588047.74,3267555.38 588047.74,3267555.38 588062.91,3267560.02 588062.91,3267560.02 588080.73,3267565.50 588080.73,3267565.50 588101.73,3267572.01 588101.73,3267572.01 588119.38,3267577.49 588119.38,3267577.49 588130.21,3267580.84 588130.21,3267580.84 588145.40,3267585.64 588145.40,3267585.64 588153.29,3267588.08">
        <lane index="0" width="3.66" type="shoulder" disallow="all" />
        <lane index="1" width="3.66" />
        <lane index="2" width="3.66" />
    </edge>
    <edge id="148.0" from="junction_67" to="node_148_end" numLanes="1" speed="13.89" type="town" shape="588237.53,3267606.37 588243.00,3267607.49 588243.00,3267607.49 588252.43,3267609.32 588252.43,3267609.32 588262.11,3267611.26 588262.11,3267611.26 588279.11,3267614.63 588279.11,3267614.63 588287.02,3267616.13 588287.02,3267616.13 588300.28,3267618.70 588300.28,3267618.70 588306.66,3267619.70 588306.66,3267619.70 588309.91,3267619.79 588309.91,3267619.79 588311.52,3267619.67 588311.52,3267619.67 588318.19,3267618.55">
        <lane index="0" width="3.66" />
    </edge>
    <edge id="149.0" from="junction_67" to="node_144_start" numLanes="2" speed="13.89" type="town" shape="588235.39,3267613.29 588245.46,3267616.39 588245.46,3267616.39 588259.20,3267620.64 588259.20,3267620.64 588281.72,3267627.69">
        <lane index="0" width="3.66" />
        <lane index="1" width="3.66" />
    </edge>
    <edge id="153.0" from="node_131_end" to="node_133_start" numLanes="1" speed="13.89" type="town" shape="590254.51,3268355.71 590324.67,3268385.93">
        <lane index="0" width="3.66" />
    </edge>
    <edge id="154.0" from="node_154_start" to="node_154_end" numLanes="3" speed="13.89" type="town" shape="592794.43,3269407.73 592808.15,3269418.22 592808.15,3269418.22 592825.85,3269432.09 592825.85,3269432.09 592840.30,3269443.76 592840.30,3269443.76 592850.24,3269451.87 592850.24,3269451.87 592860.34,3269460.26 592860.34,3269460.26 592873.98,3269471.74 592873.98,3269471.74 592891.20,3269486.40 592891.20,3269486.40 592902.95,3269496.83 592902.95,3269496.83 592914.21,3269507.08 592914.21,3269507.08 592926.48,3269518.44 592926.48,3269518.44 592936.40,3269527.76">
        <lane index="0" width="3.66" type="shoulder" disallow="all" />
        <lane index="1" width="3.66" />
        <lane index="2" width="3.66" />
    </edge>
    <edge id="156.0" from="node_156_start" to="node_156_end" numLanes="3" speed="13.89" type="town" shape="595538.63,3271780.30 595550.87,3271787.96 595550.87,3271787.96 595564.01,3271796.23 595564.01,3271796.23 595579.00,3271805.51 595579.00,3271805.51 595598.52,3271817.64 595598.52,3271817.64 595615.90,3271828.44 595615.90,3271828.44 595633.83,3271839.76 595633.83,3271839.76 595647.65,3271848.51 595647.65,3271848.51 595664.19,3271859.19 595664.19,3271859.19 595680.75,3271869.94 595680.75,3271869.94 595692.99,3271877.96">
        <lane index="0" width="3.66" type="shoulder" disallow="all" />
        <lane index="1" width="3.66" />
        <lane index="2" width="3.66" />
    </edge>
    <edge id="157.0" from="junction_68" to="node_157_end" numLanes="2" speed="13.89" type="town" shape="593462.37,3270165.91 593481.30,3270190.18 593481.30,3270190.18 593509.05,3270225.76 593509.05,3270225.76 593514.53,3270232.85">
        <lane index="0" width="3.66" />
        <lane index="1" width="3.66" />
    </edge>
    <edge id="158.0" from="node_158_start" to="node_158_end" numLanes="3" speed="13.89" type="town" shape="594970.31,3271415.82 594974.80,3271418.93 594974.80,3271418.93 594995.99,3271433.68 594995.99,3271433.68 595017.16,3271448.45 595017.16,3271448.45 595035.24,3271461.08 595035.24,3271461.08 595056.78,3271475.96 595056.78,3271475.96 595072.46,3271486.61 595072.46,3271486.61 595093.05,3271500.36 595093.05,3271500.36 595116.99,3271516.33">
        <lane index="0" width="3.66" type="shoulder" disallow="all" />
        <lane index="1" width="3.66" />
        <lane index="2" width="3.66" />
    </edge>
    <edge id="159.0" from="node_159_start" to="junction_68" numLanes="3" speed="13.89" type="town" shape="593126.29,3269736.49 593136.44,3269749.19 593136.44,3269749.19 593151.15,3269767.68 593151.15,3269767.68 593163.71,3269783.70 593163.71,3269783.70 593179.66,3269804.02 593179.66,3269804.02 593199.26,3269829.16 593199.26,3269829.16 593221.32,3269857.39 593221.32,3269857.39 593244.60,3269887.08 593244.60,3269887.08 593266.65,3269915.41 593266.65,3269915.41 593320.76,3269984.54 593320.76,3269984.54 593343.35,3270013.47 593343.35,3270013.47 593364.15,3270039.97 593364.15,3270039.97 593384.37,3270065.71 593384.37,3270065.71 593388.17,3270070.55">
        <lane index="0" width="3.66" type="shoulder" disallow="all" />
        <lane index="1" width="3.66" />
        <lane index="2" width="3.66" />
    </edge>
    <edge id="160.0" from="node_160_start" to="node_160_end" numLanes="3" speed="13.89" type="town" shape="594403.74,3271020.41 594414.59,3271028.20 594414.59,3271028.20 594429.16,3271038.74 594429.16,3271038.74 594441.91,3271048.05 594441.91,3271048.05 594454.54,3271057.31 594454.54,3271057.31 594477.34,3271073.60 594477.34,3271073.60 594501.09,3271090.44 594501.09,3271090.44 594508.39,3271095.68">
        <lane index="0" width="3.66" type="shoulder" disallow="all" />
        <lane index="1" width="3.66" />
        <lane index="2" width="3.66" />
    </edge>
    <edge id="161.0" from="junction_66" to="node_161_end" numLanes="2" speed="13.89" type="town" shape="592503.98,3269229.37 592515.30,3269234.89 592515.30,3269234.89 592536.81,3269245.94 592536.81,3269245.94 592554.91,3269255.53 592554.91,3269255.53 592565.47,3269261.18 592565.47,3269261.18 592580.72,3269269.59 592580.72,3269269.59 592597.18,3269278.88 592597.18,3269278.88 592614.06,3269288.52 592614.06,3269288.52 592629.91,3269297.77 592629.91,3269297.77 592650.40,3269309.94">
        <lane index="0" width="3.66" />
        <lane index="1" width="3.66" />
    </edge>
    <edge id="162.0" from="node_162_start" to="j_merge_start_12" numLanes="2" speed="13.89" type="town" shape="593925.89,3270681.97 593932.88,3270687.58 593932.88,3270687.58 593949.37,3270700.43 593949.37,3270700.43 593960.97,3270709.23 593960.97,3270709.23 593976.50,3270720.75 593976.50,3270720.75 593994.36,3270733.67 593994.36,3270733.67 593998.97,3270736.93">
        <lane index="0" width="3.66" />
        <lane index="1" width="3.66" />
    </edge>
    <edge id="163.0" from="node_158_end" to="node_163_end" numLanes="3" speed="13.89" type="town" shape="595116.99,3271516.33 595138.80,3271530.73 595138.80,3271530.73 595159.00,3271543.77 595159.00,3271543.77 595176.08,3271554.53 595176.08,3271554.53 595196.64,3271567.31 595196.64,3271567.31 595217.27,3271580.13 595217.27,3271580.13 595237.90,3271592.94 595237.90,3271592.94 595260.69,3271607.10 595260.69,3271607.10 595277.14,3271617.34 595277.14,3271617.34 595293.51,3271627.46 595293.51,3271627.46 595296.37,3271629.21">
        <lane index="0" width="3.66" type="shoulder" disallow="all" />
        <lane index="1" width="3.66" />
        <lane index="2" width="3.66" />
    </edge>
    <edge id="166.0" from="node_156_end" to="junction_13" numLanes="2" speed="13.89" type="town" shape="595692.99,3271877.96 595703.30,3271884.72 595703.30,3271884.72 595725.16,3271899.38 595725.16,3271899.38 595754.27,3271919.17 595754.27,3271919.17 595770.51,3271930.41 595770.51,3271930.41 595792.16,3271945.35 595792.16,3271945.35 595809.42,3271957.25 595809.42,3271957.25 595831.97,3271972.68 595831.97,3271972.68 595855.00,3271988.47 595855.00,3271988.47 595871.20,3271999.87 595871.20,3271999.87 595883.10,3272008.07 595883.10,3272008.07 595899.99,3272019.65 595899.99,3272019.65 595923.36,3272035.65 595923.36,3272035.65 595945.85,3272050.83 595945.85,3272050.83 595967.48,3272065.12">
        <lane index="0" width="3.66" />
        <lane index="1" width="3.66" />
    </edge>
    <edge id="167.0" from="node_167_start" to="j_merge_start_12" numLanes="1" speed="13.89" type="town" shape="593924.12,3270614.18 593929.96,3270640.97 593929.96,3270640.97 593934.40,3270662.34 593934.40,3270662.34 593935.81,3270667.76 593935.81,3270667.76 593937.44,3270670.85 593937.44,3270670.85 593940.14,3270674.53 593940.14,3270674.53 593945.17,3270680.07 593945.17,3270680.07 593956.08,3270690.46 593956.08,3270690.46 593969.90,3270702.76 593969.90,3270702.76 593986.03,3270716.66 593986.03,3270716.66 594002.63,3270730.65">
        <lane index="0" width="3.66" />
    </edge>
    <edge id="168.0" from="node_168_start" to="node_168_end" numLanes="1" speed="13.89" type="town" shape="593526.80,3270222.91 593530.14,3270226.05 593530.14,3270226.05 593538.44,3270233.84 593538.44,3270233.84 593550.87,3270244.60 593550.87,3270244.60 593563.29,3270254.32 593563.29,3270254.32 593577.91,3270264.74 593577.91,3270264.74 593590.84,3270273.74 593590.84,3270273.74 593602.25,3270281.68 593602.25,3270281.68 593616.69,3270292.00 593616.69,3270292.00 593629.61,3270302.37 593629.61,3270302.37 593638.97,3270310.79 593638.97,3270310.79 593648.16,3270319.53 593648.16,3270319.53 593656.12,3270327.84 593656.12,3270327.84 593665.03,3270338.27">
        <lane index="0" width="3.66" />
    </edge>
    <edge id="169.0" from="node_169_start" to="node_169_end" numLanes="3" speed="13.89" type="town" shape="593648.00,3270403.87 593661.10,3270420.77 593661.10,3270420.77 593673.88,3270436.76 593673.88,3270436.76 593684.99,3270449.96 593684.99,3270449.96 593696.59,3270462.95 593696.59,3270462.95 593712.54,3270480.51 593712.54,3270480.51 593728.94,3270498.29 593728.94,3270498.29 593743.13,3270513.82 593743.13,3270513.82 593764.45,3270536.25 593764.45,3270536.25 593780.13,3270552.23 593780.13,3270552.23 593793.22,3270565.05">
        <lane index="0" width="3.66" type="shoulder" disallow="all" />
        <lane index="1" width="3.66" />
        <lane index="2" width="3.66" />
    </edge>
    <edge id="170.0" from="node_169_end" to="node_162_start" numLanes="3" speed="13.89" type="town" shape="593793.22,3270565.05 593795.32,3270567.11 593795.32,3270567.11 593817.60,3270588.21 593817.60,3270588.21 593833.65,3270603.08 593833.65,3270603.08 593850.02,3270617.88 593850.02,3270617.88 593866.28,3270632.22 593866.28,3270632.22 593893.24,3270655.17 593893.24,3270655.17 593899.27,3270660.26 593899.27,3270660.26 593913.84,3270672.31 593913.84,3270672.31 593925.89,3270681.97">
        <lane index="0" width="3.66" type="shoulder" disallow="all" />
        <lane index="1" width="3.66" />
        <lane index="2" width="3.66" />
    </edge>
    <edge id="171.0" from="junction_68" to="node_168_start" numLanes="1" speed="13.89" type="town" shape="593468.51,3270161.87 593474.47,3270168.32 593474.47,3270168.32 593486.59,3270181.30 593486.59,3270181.30 593504.56,3270199.98 593504.56,3270199.98 593517.98,3270213.96 593517.98,3270213.96 593526.80,3270222.91">
        <lane index="0" width="3.66" />
    </edge>
    <edge id="172.0" from="node_154_end" to="node_172_end" numLanes="3" speed="13.89" type="town" shape="592936.40,3269527.76 592945.15,3269536.05 592945.15,3269536.05 592957.15,3269547.49 592957.15,3269547.49 592972.80,3269562.67 592972.80,3269562.67 592984.62,3269574.39 592984.62,3269574.39 592995.87,3269585.73 592995.87,3269585.73 593005.74,3269595.79 593005.74,3269595.79 593015.19,3269605.53 593015.19,3269605.53 593019.54,3269610.14 593019.54,3269610.14 593030.22,3269621.45 593030.22,3269621.45 593043.87,3269636.48 593043.87,3269636.48 593057.30,3269651.77 593057.30,3269651.77 593060.58,3269655.60">
        <lane index="0" width="3.66" type="shoulder" disallow="all" />
        <lane index="1" width="3.66" />
        <lane index="2" width="3.66" />
    </edge>
    <edge id="174.0" from="node_172_end" to="node_159_start" numLanes="3" speed="13.89" type="town" shape="593060.58,3269655.60 593065.14,3269660.89 593065.14,3269660.89 593077.20,3269675.43 593077.20,3269675.43 593090.81,3269692.10 593090.81,3269692.10 593101.13,3269704.90 593101.13,3269704.90 593111.75,3269718.27 593111.75,3269718.27 593123.16,3269732.59 593123.16,3269732.59 593126.29,3269736.49">
        <lane index="0" width="3.66" type="shoulder" disallow="all" />
        <lane index="1" width="3.66" />
        <lane index="2" width="3.66" />
    </edge>
    <edge id="175.0" from="j_merge_end_12" to="node_160_start" numLanes="3" speed="13.89" type="town" shape="594171.37,3270857.51 594178.89,3270862.77 594178.89,3270862.77 594197.76,3270875.94 594197.76,3270875.94 594215.09,3270888.03 594215.09,3270888.03 594233.51,3270900.93 594233.51,3270900.93 594247.76,3270910.89 594247.76,3270910.89 594264.28,3270922.44 594264.28,3270922.44 594280.63,3270933.93 594280.63,3270933.93 594293.31,3270942.91 594293.31,3270942.91 594305.19,3270951.29 594305.19,3270951.29 594333.29,3270971.25 594333.29,3270971.25 594345.00,3270979.21 594345.00,3270979.21 594360.95,3270990.40 594360.95,3270990.40 594371.93,3270998.04 594371.93,3270998.04 594386.23,3271008.10 594386.23,3271008.10 594400.70,3271018.23 594400.70,3271018.23 594403.74,3271020.41">
        <lane index="0" width="3.66" type="shoulder" disallow="all" />
        <lane index="1" width="3.66" />
        <lane index="2" width="3.66" />
    </edge>