<?xml version="1.0" encoding="UTF-8"?>

<!-- generated on 2025-10-19 17:35:16 by Eclipse SUMO netconvert Version 1.23.1
<netconvertConfiguration xmlns:xsi="http://www.w3.org/2001/XMLSchema-instance" xsi:noNamespaceSchemaLocation="http://sumo.dlr.de/xsd/netconvertConfiguration.xsd">

    <input>
        <node-files value="/home/sdai/harry/TeraSim/jupiter/eb/jupiter_eb_tiles/tile_0016/tile_0016.nod.xml"/>
        <edge-files value="/home/sdai/harry/TeraSim/jupiter/eb/jupiter_eb_tiles/tile_0016/tile_0016.edg.xml"/>
        <connection-files value="/home/sdai/harry/TeraSim/jupiter/eb/jupiter_eb_tiles/tile_0016/tile_0016.con.xml"/>
    </input>

    <output>
        <output-file value="/home/sdai/harry/TeraSim/jupiter/eb/jupiter_eb_tiles/tile_0016/tile_0016.net.xml"/>
        <output.street-names value="true"/>
        <output.original-names value="true"/>
    </output>

    <processing>
        <geometry.remove value="false"/>
        <geometry.min-dist value="0.5"/>
        <edges.join value="false"/>
    </processing>

    <junctions>
        <no-internal-links value="false"/>
        <no-turnarounds value="true"/>
        <junctions.join value="true"/>
        <junctions.join-dist value="10"/>
        <junctions.corner-detail value="5"/>
        <junctions.internal-link-detail value="5"/>
        <junctions.limit-turn-speed value="5.5"/>
        <rectangular-lane-cut value="true"/>
        <check-lane-foes.all value="true"/>
    </junctions>

</netconvertConfiguration>
-->

<net version="1.20" junctionCornerDetail="5" junctionLinkDetail="5" rectangularLaneCut="true" limitTurnSpeed="5.50" checkLaneFoesAll="1" xmlns:xsi="http://www.w3.org/2001/XMLSchema-instance" xsi:noNamespaceSchemaLocation="http://sumo.dlr.de/xsd/net_file.xsd">

    <location netOffset="-586385.69,-3267041.36" convBoundary="0.00,0.00,9780.36,5149.40" origBoundary="0.00,0.00,596166.05,3272190.76" projParameter="!"/>

    <edge id=":j_merge_end_12_0" function="internal">
        <lane id=":j_merge_end_12_0_0" index="0" speed="13.89" length="36.39" width="3.66" shape="7761.33,3788.00 7768.75,3794.59 7774.03,3801.33 7779.30,3808.07 7786.73,3814.65"/>
        <lane id=":j_merge_end_12_0_1" index="1" speed="13.89" length="36.39" width="3.66" shape="7759.23,3791.00 7788.83,3811.66"/>
        <lane id=":j_merge_end_12_0_2" index="2" speed="13.89" length="36.39" width="3.66" shape="7757.13,3794.00 7786.73,3814.65"/>
    </edge>
    <edge id=":j_merge_start_12_0" function="internal">
        <lane id=":j_merge_start_12_0_0" index="0" speed="13.89" length="77.11" width="3.66" shape="7616.26,3686.33 7625.99,3693.41 7644.61,3706.50 7664.82,3720.60 7679.32,3730.71"/>
    </edge>
    <edge id=":j_merge_start_12_1" function="internal">
        <lane id=":j_merge_start_12_1_0" index="0" speed="13.89" length="77.30" width="3.66" shape="7613.94,3689.32 7677.22,3733.71"/>
        <lane id=":j_merge_start_12_1_1" index="1" speed="13.89" length="77.30" width="3.66" shape="7611.83,3692.31 7675.12,3736.71"/>
    </edge>
    <edge id=":junction_10_0" function="internal">
        <lane id=":junction_10_0_0" index="0" speed="13.89" length="48.62" width="3.66" shape="3710.53,1255.23 3755.94,1272.63"/>
        <lane id=":junction_10_0_1" index="1" speed="13.89" length="48.62" width="3.66" shape="3709.24,1258.65 3754.63,1276.04"/>
    </edge>
    <edge id=":junction_11_0" function="internal">
        <lane id=":junction_11_0_0" index="0" speed="13.89" length="66.99" width="3.66" shape="2414.13,759.86 2476.69,783.82"/>
        <lane id=":junction_11_0_1" index="1" speed="13.89" length="66.99" width="3.66" shape="2412.82,763.28 2475.38,787.24"/>
    </edge>
    <edge id=":junction_13_0" function="internal">
        <lane id=":junction_13_0_0" index="0" speed="13.89" length="26.95" width="3.66" shape="9588.24,5013.77 9609.09,5030.84"/>
    </edge>
    <edge id=":junction_13_1" function="internal">
        <lane id=":junction_13_1_0" index="0" speed="13.89" length="26.72" width="3.66" shape="9584.82,5019.18 9607.10,5033.91"/>
        <lane id=":junction_13_1_1" index="1" speed="13.89" length="26.72" width="3.66" shape="9582.80,5022.24 9605.11,5036.98"/>
    </edge>
    <edge id=":junction_65_0" function="internal">
        <lane id=":junction_65_0_0" index="0" speed="13.89" length="65.75" width="3.66" shape="3161.42,1045.42 3176.44,1050.58 3196.23,1056.75 3214.30,1062.15 3224.17,1065.00"/>
    </edge>
    <edge id=":junction_65_1" function="internal">
        <lane id=":junction_65_1_0" index="0" speed="13.89" length="65.82" width="3.66" shape="3161.42,1045.42 3222.92,1068.85"/>
        <lane id=":junction_65_1_1" index="1" speed="13.89" length="65.82" width="3.66" shape="3160.09,1048.83 3221.61,1072.27"/>
    </edge>
    <edge id=":junction_66_0" function="internal">
        <lane id=":junction_66_0_0" index="0" speed="13.89" length="88.77" width="3.66" shape="6043.87,2148.65 6126.34,2181.50"/>
    </edge>
    <edge id=":junction_66_1" function="internal">
        <lane id=":junction_66_1_0" index="0" speed="13.89" length="88.57" width="3.66" shape="6043.87,2148.65 6124.74,2185.05"/>
        <lane id=":junction_66_1_1" index="1" speed="13.89" length="88.57" width="3.66" shape="6042.47,2152.03 6123.13,2188.34"/>
    </edge>
    <edge id=":junction_67_0" function="internal">
        <lane id=":junction_67_0_0" index="0" speed="13.89" length="90.58" width="3.66" shape="1769.22,541.48 1788.28,546.76 1816.60,554.12 1843.15,560.84 1856.90,564.18"/>
    </edge>
    <edge id=":junction_67_1" function="internal">
        <lane id=":junction_67_1_0" index="0" speed="13.89" length="90.68" width="3.66" shape="1769.22,541.48 1855.90,568.10"/>
        <lane id=":junction_67_1_1" index="1" speed="13.89" length="90.68" width="3.66" shape="1768.14,544.98 1854.83,571.60"/>
    </edge>
    <edge id=":junction_68_0" function="internal">
        <lane id=":junction_68_0_0" index="0" speed="13.89" length="125.25" width="3.66" shape="7006.80,3025.80 7086.83,3122.16"/>
    </edge>
    <edge id=":junction_68_1" function="internal">
        <lane id=":junction_68_1_0" index="0" speed="13.89" length="125.36" width="3.66" shape="7006.80,3025.80 7083.79,3124.74"/>
        <lane id=":junction_68_1_1" index="1" speed="13.89" length="125.36" width="3.66" shape="7003.92,3028.06 7080.90,3126.99"/>
    </edge>
    <edge id=":junction_69_0" function="internal">
        <lane id=":junction_69_0_0" index="0" speed="13.89" length="93.21" width="3.66" shape="8425.90,4259.31 8442.93,4270.15 8468.68,4285.86 8492.93,4300.43 8505.46,4307.85"/>
    </edge>
    <edge id=":junction_69_1" function="internal">
        <lane id=":junction_69_1_0" index="0" speed="13.89" length="93.25" width="3.66" shape="8425.90,4259.31 8503.34,4311.25"/>
        <lane id=":junction_69_1_1" index="1" speed="13.89" length="93.25" width="3.66" shape="8423.82,4262.32 8501.27,4314.27"/>
    </edge>
    <edge id=":node_122_start_0" function="internal">
        <lane id=":node_122_start_0_0" index="0" speed="13.89" length="8.10" width="3.66" shape="2652.74,850.81 2660.27,853.83"/>
    </edge>
    <edge id=":node_122_start_1" function="internal">
        <lane id=":node_122_start_1_0" index="0" speed="13.89" length="8.00" width="3.66" shape="2652.78,850.99 2660.27,853.83"/>
        <lane id=":node_122_start_1_1" index="1" speed="13.89" length="8.00" width="3.66" shape="2651.49,854.41 2658.96,857.25"/>
    </edge>
    <edge id=":node_124_start_0" function="internal">
        <lane id=":node_124_start_0_0" index="0" speed="13.89" length="3.47" width="3.66" shape="2596.96,825.87 2597.89,826.30 2598.48,826.69 2599.06,827.10 2599.97,827.58"/>
    </edge>
    <edge id=":node_124_start_1" function="internal">
        <lane id=":node_124_start_1_0" index="0" speed="13.89" length="3.01" width="3.66" shape="2595.64,829.28 2598.45,830.36"/>
        <lane id=":node_124_start_1_1" index="1" speed="13.89" length="3.01" width="3.66" shape="2594.32,832.69 2597.14,833.78"/>
    </edge>
    <edge id=":node_128_end_0" function="internal">
        <lane id=":node_128_end_0_0" index="0" speed="13.89" length="0.30" width="3.66" shape="3415.60,1142.58 3415.87,1142.68"/>
        <lane id=":node_128_end_0_1" index="1" speed="13.89" length="0.30" width="3.66" shape="3414.29,1146.00 3414.58,1146.11"/>
    </edge>
    <edge id=":node_128_start_0" function="internal">
        <lane id=":node_128_start_0_0" index="0" speed="13.89" length="3.00" width="3.66" shape="3280.98,1091.00 3283.80,1092.08"/>
        <lane id=":node_128_start_0_1" index="1" speed="13.89" length="3.00" width="3.66" shape="3279.69,1094.43 3282.48,1095.49"/>
    </edge>
    <edge id=":node_131_end_0" function="internal">
        <lane id=":node_131_end_0_0" index="0" speed="13.89" length="3.45" width="3.66" shape="3868.14,1311.55 3869.05,1311.99 3869.62,1312.41 3870.17,1312.85 3871.07,1313.33"/>
    </edge>
    <edge id=":node_131_end_1" function="internal">
        <lane id=":node_131_end_1_0" index="0" speed="13.89" length="3.00" width="3.66" shape="3866.84,1314.97 3869.64,1316.04"/>
        <lane id=":node_131_end_1_1" index="1" speed="13.89" length="3.00" width="3.66" shape="3865.54,1318.39 3868.34,1319.46"/>
    </edge>
    <edge id=":node_132_end_0" function="internal">
        <lane id=":node_132_end_0_0" index="0" speed="13.89" length="0.30" width="3.66" shape="3522.20,1183.14 3522.49,1183.25"/>
        <lane id=":node_132_end_0_1" index="1" speed="13.89" length="0.30" width="3.66" shape="3520.90,1186.56 3521.18,1186.67"/>
    </edge>
    <edge id=":node_132_start_0" function="internal">
        <lane id=":node_132_start_0_0" index="0" speed="13.89" length="0.30" width="3.66" shape="3486.45,1169.47 3486.73,1169.57"/>
        <lane id=":node_132_start_0_1" index="1" speed="13.89" length="0.30" width="3.66" shape="3485.14,1172.88 3485.42,1172.99"/>
    </edge>
    <edge id=":node_133_start_0" function="internal">
        <lane id=":node_133_start_0_0" index="0" speed="13.89" length="8.07" width="3.66" shape="3935.67,1341.15 3943.15,1344.17"/>
    </edge>
    <edge id=":node_133_start_1" function="internal">
        <lane id=":node_133_start_1_0" index="0" speed="13.89" length="8.00" width="3.66" shape="3935.69,1341.31 3943.15,1344.17"/>
        <lane id=":node_133_start_1_1" index="1" speed="13.89" length="8.00" width="3.66" shape="3934.37,1344.73 3941.84,1347.59"/>
    </edge>
    <edge id=":node_143_end_0" function="internal">
        <lane id=":node_143_end_0_0" index="0" speed="13.89" length="0.30" width="3.66" shape="3610.52,1216.94 3610.80,1217.05"/>
        <lane id=":node_143_end_0_1" index="1" speed="13.89" length="0.30" width="3.66" shape="3609.21,1220.36 3609.49,1220.47"/>
    </edge>
    <edge id=":node_144_start_0" function="internal">
        <lane id=":node_144_start_0_0" index="0" speed="13.89" length="3.00" width="3.66" shape="1896.23,580.64 1899.08,581.53"/>
        <lane id=":node_144_start_0_1" index="1" speed="13.89" length="3.00" width="3.66" shape="1895.14,584.14 1898.01,585.03"/>
    </edge>
    <edge id=":node_154_end_0" function="internal">
        <lane id=":node_154_end_0_0" index="0" speed="13.89" length="0.30" width="3.66" shape="6554.37,2482.31 6554.59,2482.52"/>
        <lane id=":node_154_end_0_1" index="1" speed="13.89" length="0.30" width="3.66" shape="6551.86,2484.97 6552.07,2485.17"/>
    </edge>
    <edge id=":node_154_start_0" function="internal">
        <lane id=":node_154_start_0_0" index="0" speed="13.89" length="0.29" width="3.66" shape="6411.93,2361.90 6412.18,2362.09"/>
        <lane id=":node_154_start_0_1" index="1" speed="13.89" length="0.29" width="3.66" shape="6409.73,2364.83 6409.95,2365.00"/>
    </edge>
    <edge id=":node_156_end_0" function="internal">
        <lane id=":node_156_end_0_0" index="0" speed="13.89" length="3.00" width="3.66" shape="9309.05,4831.19 9311.56,4832.84"/>
        <lane id=":node_156_end_0_1" index="1" speed="13.89" length="3.00" width="3.66" shape="9307.05,4834.25 9309.56,4835.90"/>
    </edge>
    <edge id=":node_156_start_0" function="internal">
        <lane id=":node_156_start_0_0" index="0" speed="13.89" length="0.30" width="3.66" shape="9155.72,4734.21 9155.98,4734.37"/>
        <lane id=":node_156_start_0_1" index="1" speed="13.89" length="0.30" width="3.66" shape="9153.78,4737.31 9154.04,4737.47"/>
    </edge>
    <edge id=":node_157_end_0" function="internal">
        <lane id=":node_157_end_0_0" index="0" speed="13.89" length="3.00" width="3.66" shape="7132.27,3186.95 7134.10,3189.32"/>
        <lane id=":node_157_end_0_1" index="1" speed="13.89" length="3.00" width="3.66" shape="7129.37,3189.19 7131.21,3191.56"/>
    </edge>
    <edge id=":node_158_end_0" function="internal">
        <lane id=":node_158_end_0_0" index="0" speed="13.89" length="0.30" width="3.66" shape="8734.22,4470.32 8734.46,4470.48"/>
        <lane id=":node_158_end_0_1" index="1" speed="13.89" length="0.30" width="3.66" shape="8732.18,4473.36 8732.44,4473.53"/>
    </edge>
    <edge id=":node_158_start_0" function="internal">
        <lane id=":node_158_start_0_0" index="0" speed="13.89" length="3.00" width="3.66" shape="8586.51,4369.10 8588.98,4370.81"/>
        <lane id=":node_158_start_0_1" index="1" speed="13.89" length="3.00" width="3.66" shape="8584.43,4372.11 8586.89,4373.81"/>
    </edge>
    <edge id=":node_159_start_0" function="internal">
        <lane id=":node_159_start_0_0" index="0" speed="13.89" length="0.30" width="3.66" shape="6744.79,2691.58 6744.98,2691.82"/>
        <lane id=":node_159_start_0_1" index="1" speed="13.89" length="0.30" width="3.66" shape="6741.94,2693.88 6742.12,2694.11"/>
    </edge>
    <edge id=":node_160_end_0" function="internal">
        <lane id=":node_160_end_0_0" index="0" speed="13.89" length="0.29" width="3.66" shape="8125.77,4049.77 8125.99,4049.93"/>
        <lane id=":node_160_end_0_1" index="1" speed="13.89" length="0.29" width="3.66" shape="8123.63,4052.74 8123.89,4052.92"/>
    </edge>
    <edge id=":node_160_start_0" function="internal">
        <lane id=":node_160_start_0_0" index="0" speed="13.89" length="0.30" width="3.66" shape="8021.13,3974.51 8021.37,3974.68"/>
        <lane id=":node_160_start_0_1" index="1" speed="13.89" length="0.30" width="3.66" shape="8019.00,3977.48 8019.24,3977.65"/>
    </edge>
    <edge id=":node_161_end_0" function="internal">
        <lane id=":node_161_end_0_0" index="0" speed="13.89" length="3.00" width="3.66" shape="6266.22,2263.10 6268.80,2264.63"/>
        <lane id=":node_161_end_0_1" index="1" speed="13.89" length="3.00" width="3.66" shape="6264.36,2266.25 6266.93,2267.78"/>
    </edge>
    <edge id=":node_162_start_0" function="internal">
        <lane id=":node_162_start_0_0" index="0" speed="13.89" length="3.00" width="3.66" shape="7542.46,3635.39 7544.81,3637.27"/>
        <lane id=":node_162_start_0_1" index="1" speed="13.89" length="3.00" width="3.66" shape="7540.18,3638.25 7542.51,3640.13"/>
    </edge>
    <edge id=":node_163_end_0" function="internal">
        <lane id=":node_163_end_0_0" index="0" speed="13.89" length="0.30" width="3.66" shape="8913.43,4583.10 8913.70,4583.27"/>
        <lane id=":node_163_end_0_1" index="1" speed="13.89" length="0.30" width="3.66" shape="8911.52,4586.22 8911.76,4586.37"/>
    </edge>
    <edge id=":node_168_start_0" function="internal">
        <lane id=":node_168_start_0_0" index="0" speed="13.89" length="0.23" width="3.66" shape="7142.31,3180.16 7142.47,3180.32"/>
    </edge>
    <edge id=":node_169_end_0" function="internal">
        <lane id=":node_169_end_0_0" index="0" speed="13.89" length="0.30" width="3.66" shape="7411.27,3519.67 7411.48,3519.88"/>
        <lane id=":node_169_end_0_1" index="1" speed="13.89" length="0.30" width="3.66" shape="7408.70,3522.28 7408.92,3522.49"/>
    </edge>
    <edge id=":node_169_start_0" function="internal">
        <lane id=":node_169_start_0_0" index="0" speed="13.89" length="0.30" width="3.66" shape="7266.57,3359.05 7266.75,3359.28"/>
        <lane id=":node_169_start_0_1" index="1" speed="13.89" length="0.30" width="3.66" shape="7263.67,3361.27 7263.85,3361.52"/>
    </edge>
    <edge id=":node_172_end_0" function="internal">
        <lane id=":node_172_end_0_0" index="0" speed="13.89" length="0.30" width="3.66" shape="6678.96,2610.56 6679.15,2610.78"/>
        <lane id=":node_172_end_0_1" index="1" speed="13.89" length="0.30" width="3.66" shape="6676.18,2612.94 6676.38,2613.17"/>
    </edge>
    <edge id=":node_178_start_0" function="internal">
        <lane id=":node_178_start_0_0" index="0" speed="13.89" length="0.10" width="3.66" shape="8594.92,4358.92 8594.92,4358.92"/>
    </edge>
    <edge id=":node_190_end_0" function="internal">
        <lane id=":node_190_end_0_0" index="0" speed="13.89" length="0.28" width="3.66" shape="6274.98,2251.59 6275.23,2251.72"/>
    </edge>

    <edge id="122.0" from="node_122_start" to="junction_65" priority="-1" type="town" shape="2654.61,857.54 2664.11,861.16 2671.82,864.09 2682.28,868.08 2694.23,872.65 2705.94,877.18 2722.47,883.50 2742.58,891.20 2764.89,899.69 2784.36,907.18 2816.34,919.43 2851.28,932.76 2899.71,951.35 2929.47,962.67 2972.00,978.90 3003.54,990.97 3060.59,1012.56 3096.45,1026.37 3124.28,1036.95 3149.83,1046.80 3159.43,1050.53">
        <lane id="122.0_0" index="0" disallow="all" speed="13.89" length="536.53" width="3.66" shape="2661.57,850.41 2667.36,852.61 2675.08,855.54 2685.55,859.54 2697.51,864.11 2709.22,868.64 2725.74,874.96 2745.84,882.66 2768.16,891.15 2787.64,898.64 2819.61,910.89 2854.55,924.22 2902.98,942.81 2932.73,954.12 2975.27,970.36 3006.79,982.42 3063.85,1004.02 3099.72,1017.83 3127.55,1028.41 3153.13,1038.27 3162.74,1042.01" type="shoulder"/>
        <lane id="122.0_1" index="1" speed="13.89" length="536.53" width="3.66" shape="2660.27,853.83 2666.06,856.03 2673.77,858.96 2684.24,862.96 2696.20,867.53 2707.91,872.06 2724.43,878.38 2744.54,886.08 2766.85,894.57 2786.33,902.06 2818.30,914.31 2853.24,927.64 2901.67,946.23 2931.43,957.54 2973.96,973.78 3005.49,985.84 3062.55,1007.44 3098.41,1021.25 3126.24,1031.83 3151.81,1041.68 3161.42,1045.42"/>
        <lane id="122.0_2" index="2" speed="13.89" length="536.53" width="3.66" shape="2658.96,857.25 2664.76,859.45 2672.47,862.38 2682.93,866.37 2694.89,870.95 2706.60,875.48 2723.12,881.80 2743.23,889.49 2765.54,897.99 2785.02,905.48 2816.99,917.73 2851.93,931.06 2900.36,949.65 2930.12,960.96 2972.65,977.20 3004.19,989.26 3061.24,1010.85 3097.10,1024.67 3124.93,1035.25 3150.49,1045.10 3160.09,1048.83"/>
    </edge>
    <edge id="124.0" from="node_124_start" to="node_122_start" priority="-1" type="town" shape="2595.20,834.99 2624.07,845.99 2640.81,852.33 2654.61,857.54">
        <lane id="124.0_0" index="0" speed="13.89" length="58.13" width="3.66" shape="2598.45,830.36 2626.02,840.86 2642.75,847.20 2652.78,850.99"/>
        <lane id="124.0_1" index="1" speed="13.89" length="58.13" width="3.66" shape="2597.14,833.78 2624.72,844.28 2641.46,850.62 2651.49,854.41"/>
    </edge>
    <edge id="125.0" from="junction_65" to="node_125_end" priority="-1" type="town" shape="3218.95,1065.47 3224.52,1066.99 3234.38,1069.55 3244.65,1072.20 3255.54,1074.85 3266.31,1077.35 3276.92,1079.57 3287.34,1081.43 3292.28,1082.30 3297.92,1083.22 3301.87,1083.55 3305.20,1083.17 3308.38,1082.52 3311.62,1081.31">
        <lane id="125.0_0" index="0" speed="13.89" length="88.95" width="3.66" shape="3224.17,1065.00 3224.99,1065.23 3234.84,1067.78 3245.10,1070.43 3255.96,1073.07 3266.70,1075.57 3277.27,1077.78 3287.66,1079.63 3292.59,1080.50 3298.14,1081.41 3301.84,1081.72 3304.91,1081.37 3307.87,1080.76 3310.98,1079.60"/>
    </edge>
    <edge id="126.0" from="node_124_start" to="node_122_start" priority="-1" type="town" shape="2597.43,828.45 2655.86,854.18">
        <lane id="126.0_0" index="0" speed="13.89" length="57.66" width="3.66" shape="2599.97,827.58 2652.74,850.81"/>
    </edge>
    <edge id="128.0" from="node_128_start" to="node_128_end" priority="-1" type="town" shape="3280.43,1096.66 3289.55,1100.19 3303.44,1105.51 3316.83,1110.58 3328.17,1114.91 3341.77,1120.13 3367.18,1129.89 3383.39,1136.13 3399.13,1142.16 3413.79,1147.76">
        <lane id="128.0_0" index="0" disallow="all" speed="13.89" length="141.15" width="3.66" shape="3285.12,1088.67 3292.83,1091.65 3306.70,1096.96 3320.08,1102.03 3331.44,1106.37 3345.05,1111.59 3370.46,1121.35 3386.67,1127.59 3402.40,1133.62 3416.91,1139.16" type="shoulder"/>
        <lane id="128.0_1" index="1" speed="13.89" length="141.15" width="3.66" shape="3283.80,1092.08 3291.52,1095.07 3305.39,1100.38 3318.78,1105.45 3330.13,1109.79 3343.74,1115.01 3369.15,1124.77 3385.36,1131.01 3401.09,1137.04 3415.60,1142.58"/>
        <lane id="128.0_2" index="2" speed="13.89" length="141.15" width="3.66" shape="3282.48,1095.49 3290.21,1098.49 3304.09,1103.80 3317.48,1108.87 3328.82,1113.21 3342.43,1118.43 3367.84,1128.19 3384.05,1134.43 3399.78,1140.46 3414.29,1146.00"/>
    </edge>
    <edge id="131.0" from="junction_10" to="node_131_end" priority="-1" type="town" shape="3753.98,1277.75 3778.75,1287.20 3799.96,1295.29 3822.41,1303.82 3846.05,1312.93 3866.18,1320.59">
        <lane id="131.0_0" index="0" speed="13.89" length="118.71" width="3.66" shape="3757.24,1269.21 3782.01,1278.66 3803.22,1286.74 3825.68,1295.28 3849.32,1304.39 3868.14,1311.55"/>
        <lane id="131.0_1" index="1" speed="13.89" length="118.71" width="3.66" shape="3755.94,1272.63 3780.71,1282.08 3801.91,1290.16 3824.37,1298.70 3848.01,1307.81 3866.84,1314.97"/>
        <lane id="131.0_2" index="2" speed="13.89" length="118.71" width="3.66" shape="3754.63,1276.04 3779.40,1285.49 3800.61,1293.58 3823.06,1302.12 3846.71,1311.23 3865.54,1318.39"/>
    </edge>
    <edge id="132.0" from="node_132_start" to="node_132_end" priority="-1" type="town" shape="3484.62,1174.64 3500.41,1180.70 3514.68,1186.16 3520.39,1188.32">
        <lane id="132.0_0" index="0" disallow="all" speed="13.89" length="37.98" width="3.66" shape="3488.04,1166.16 3503.68,1172.16 3517.94,1177.62 3523.49,1179.72" type="shoulder"/>
        <lane id="132.0_1" index="1" speed="13.89" length="37.98" width="3.66" shape="3486.73,1169.57 3502.37,1175.58 3516.64,1181.03 3522.20,1183.14"/>
        <lane id="132.0_2" index="2" speed="13.89" length="37.98" width="3.66" shape="3485.42,1172.99 3501.07,1179.00 3515.33,1184.45 3520.90,1186.56"/>
    </edge>
    <edge id="133.0" from="node_133_start" to="junction_66" priority="-1" type="town" shape="3937.47,1347.87 3944.08,1350.40 3952.98,1353.84 3965.37,1358.57 3977.00,1363.02 3984.00,1365.72 3992.56,1369.00 4003.87,1373.33 4019.10,1379.19 4030.61,1383.68 4049.33,1390.85 4067.48,1397.78 4080.57,1402.79 4090.56,1406.56 4102.96,1411.26 4116.30,1416.39 4129.16,1421.29 4145.46,1427.52 4161.95,1433.82 4182.47,1441.72 4195.26,1446.63 4209.74,1452.11 4226.77,1458.63 4237.15,1462.62 4256.24,1469.91 4282.81,1480.09 4309.80,1490.32 4344.02,1503.34 4377.76,1516.34 4392.71,1522.09 4413.33,1529.96 4433.43,1537.69 4459.62,1547.64 4495.54,1561.33 4544.42,1580.15 4576.36,1592.45 4611.12,1605.79 4656.25,1623.02 4686.34,1634.36 4730.17,1651.04 4761.51,1663.05 4792.39,1674.91 4838.04,1692.49 4880.42,1708.68 4911.90,1720.77 4941.50,1732.18 4976.93,1745.73 5012.66,1759.39 5044.31,1771.39 5077.63,1784.13 5081.86,1785.76 5099.03,1792.34 5120.63,1800.55 5141.05,1808.36 5155.19,1813.71 5175.23,1821.37 5199.44,1830.58 5222.80,1839.51 5242.14,1846.88 5271.29,1858.05 5302.62,1870.11 5331.44,1881.10 5373.33,1897.25 5409.35,1910.94 5456.43,1929.00 5487.26,1940.68 5520.33,1953.30 5564.77,1970.18 5596.78,1982.32 5622.00,1992.01 5651.93,2003.44 5672.11,2011.11 5741.29,2037.65 5777.30,2051.40 5806.88,2062.71 5828.55,2070.91 5852.21,2079.93 5884.14,2092.10 5911.12,2102.35 5935.87,2111.82 5962.38,2122.13 5979.18,2128.64 6001.36,2137.33 6023.47,2146.13 6041.77,2153.72">
        <lane id="133.0_0" index="0" disallow="all" speed="13.89" length="2249.51" width="3.66" shape="3944.46,1340.75 3947.37,1341.87 3956.26,1345.30 3968.64,1350.03 3980.28,1354.48 3987.28,1357.18 3995.83,1360.46 4007.15,1364.79 4022.40,1370.66 4033.91,1375.15 4052.60,1382.31 4070.75,1389.24 4083.82,1394.24 4093.80,1398.01 4106.22,1402.72 4119.57,1407.85 4132.42,1412.75 4148.73,1418.98 4165.23,1425.28 4185.75,1433.18 4198.52,1438.08 4213.00,1443.56 4230.05,1450.09 4240.42,1454.08 4259.51,1461.37 4286.07,1471.54 4313.05,1481.77 4347.29,1494.80 4381.05,1507.81 4395.98,1513.55 4416.60,1521.42 4436.70,1529.15 4462.88,1539.09 4498.81,1552.79 4547.71,1571.62 4579.64,1583.91 4614.39,1597.25 4659.50,1614.47 4689.58,1625.81 4733.43,1642.50 4764.79,1654.51 4795.68,1666.37 4841.32,1683.95 4883.69,1700.14 4915.19,1712.23 4944.78,1723.64 4980.20,1737.19 5015.92,1750.84 5047.57,1762.84 5080.90,1775.59 5085.14,1777.22 5102.29,1783.80 5123.89,1792.00 5144.31,1799.81 5158.45,1805.16 5178.49,1812.82 5202.70,1822.03 5226.06,1830.97 5245.41,1838.34 5274.57,1849.51 5305.89,1861.57 5334.72,1872.56 5376.60,1888.71 5412.61,1902.40 5459.69,1920.45 5490.51,1932.13 5523.59,1944.75 5568.02,1961.63 5600.04,1973.78 5625.27,1983.47 5655.19,1994.89 5675.37,2002.57 5744.56,2029.11 5780.57,2042.86 5810.14,2054.16 5831.80,2062.36 5855.47,2071.38 5887.39,2083.55 5914.38,2093.80 5939.16,2103.29 5965.69,2113.61 5982.50,2120.12 6004.72,2128.82 6026.92,2137.66 6045.28,2145.27" type="shoulder"/>
        <lane id="133.0_1" index="1" speed="13.89" length="2249.51" width="3.66" shape="3943.15,1344.17 3946.05,1345.28 3954.95,1348.72 3967.33,1353.45 3978.97,1357.90 3985.97,1360.60 3994.52,1363.88 4005.84,1368.21 4021.08,1374.07 4032.59,1378.56 4051.29,1385.73 4069.44,1392.66 4082.52,1397.66 4092.50,1401.43 4104.92,1406.14 4118.26,1411.27 4131.12,1416.17 4147.42,1422.40 4163.92,1428.70 4184.44,1436.60 4197.21,1441.50 4211.69,1446.98 4228.74,1453.51 4239.11,1457.50 4258.20,1464.79 4284.77,1474.96 4311.75,1485.19 4345.98,1498.22 4379.73,1511.22 4394.67,1516.97 4415.29,1524.84 4435.39,1532.57 4461.57,1542.51 4497.50,1556.21 4546.39,1575.03 4578.33,1587.33 4613.08,1600.67 4658.20,1617.89 4688.28,1629.23 4732.13,1645.92 4763.48,1657.93 4794.36,1669.79 4840.01,1687.37 4882.38,1703.56 4913.87,1715.65 4943.47,1727.06 4978.89,1740.61 5014.61,1754.26 5046.26,1766.26 5079.59,1779.01 5083.83,1780.64 5100.99,1787.22 5122.59,1795.42 5143.00,1803.23 5157.14,1808.58 5177.19,1816.24 5201.40,1825.45 5224.76,1834.39 5244.10,1841.76 5273.26,1852.93 5304.58,1864.99 5333.41,1875.98 5375.29,1892.13 5411.31,1905.82 5458.39,1923.87 5489.21,1935.55 5522.28,1948.17 5566.72,1965.05 5598.74,1977.20 5623.96,1986.89 5653.89,1998.31 5674.07,2005.99 5743.25,2032.53 5779.26,2046.28 5808.83,2057.58 5830.50,2065.78 5854.17,2074.80 5886.09,2086.97 5913.08,2097.22 5937.85,2106.70 5964.37,2117.02 5981.17,2123.53 6003.38,2132.23 6025.54,2141.05 6043.87,2148.65"/>
        <lane id="133.0_2" index="2" speed="13.89" length="2249.51" width="3.66" shape="3941.84,1347.59 3944.74,1348.70 3953.64,1352.14 3966.02,1356.87 3977.66,1361.32 3984.66,1364.02 3993.21,1367.30 4004.53,1371.63 4019.76,1377.49 4031.27,1381.98 4049.98,1389.15 4068.13,1396.08 4081.22,1401.08 4091.21,1404.85 4103.61,1409.55 4116.95,1414.69 4129.81,1419.58 4146.11,1425.82 4162.61,1432.12 4183.13,1440.02 4195.91,1444.92 4210.39,1450.40 4227.43,1456.93 4237.80,1460.92 4256.89,1468.21 4283.46,1478.38 4310.45,1488.61 4344.67,1501.64 4378.42,1514.64 4393.36,1520.39 4413.98,1528.26 4434.08,1535.99 4460.27,1545.93 4496.19,1559.63 4545.08,1578.45 4577.02,1590.75 4611.77,1604.09 4656.90,1621.31 4686.99,1632.65 4730.82,1649.33 4762.17,1661.35 4793.05,1673.21 4838.70,1690.79 4881.07,1706.98 4912.56,1719.07 4942.16,1730.48 4977.58,1744.03 5013.31,1757.68 5044.96,1769.68 5078.28,1782.43 5082.52,1784.06 5099.68,1790.63 5121.28,1798.84 5141.70,1806.65 5155.84,1812.00 5175.88,1819.66 5200.09,1828.87 5223.45,1837.80 5242.79,1845.18 5271.95,1856.35 5303.28,1868.41 5332.10,1879.40 5373.98,1895.55 5410.00,1909.23 5457.08,1927.29 5487.91,1938.97 5520.98,1951.59 5565.42,1968.47 5597.43,1980.61 5622.65,1990.31 5652.58,2001.73 5672.76,2009.40 5741.94,2035.95 5777.95,2049.70 5807.53,2061.00 5829.20,2069.20 5852.86,2078.22 5884.79,2090.39 5911.77,2100.64 5936.53,2110.12 5963.04,2120.43 5979.85,2126.94 6002.03,2135.63 6024.16,2144.44 6042.47,2152.03"/>
    </edge>
    <edge id="134.0" from="node_128_end" to="node_132_start" priority="-1" type="town" shape="3413.79,1147.76 3419.90,1150.05 3429.76,1153.78 3445.96,1159.92 3460.78,1165.58 3479.94,1172.84 3484.62,1174.64">
        <lane id="134.0_0" index="0" disallow="all" speed="13.89" length="75.49" width="3.66" shape="3417.15,1139.25 3423.13,1141.49 3433.00,1145.23 3449.21,1151.37 3464.03,1157.03 3483.19,1164.29 3487.76,1166.05" type="shoulder"/>
        <lane id="134.0_1" index="1" speed="13.89" length="75.49" width="3.66" shape="3415.87,1142.68 3421.84,1144.92 3431.70,1148.65 3447.91,1154.79 3462.73,1160.45 3481.89,1167.71 3486.45,1169.47"/>
        <lane id="134.0_2" index="2" speed="13.89" length="75.49" width="3.66" shape="3414.58,1146.11 3420.55,1148.34 3430.41,1152.07 3446.61,1158.21 3461.43,1163.87 3480.59,1171.13 3485.14,1172.88"/>
    </edge>
    <edge id="139.0" from="node_131_end" to="node_133_start" priority="-1" type="town" shape="3866.18,1320.59 3879.60,1325.68 3894.05,1331.17 3915.22,1339.33 3937.47,1347.87">
        <lane id="139.0_0" index="0" speed="13.89" length="70.71" width="3.66" shape="3869.64,1316.04 3881.55,1320.55 3896.01,1326.05 3917.19,1334.21 3935.69,1341.31"/>
        <lane id="139.0_1" index="1" speed="13.89" length="70.71" width="3.66" shape="3868.34,1319.46 3880.25,1323.97 3894.70,1329.47 3915.88,1337.63 3934.37,1344.73"/>
    </edge>
    <edge id="141.0" from="junction_11" to="node_124_start" priority="-1" type="town" shape="2474.73,788.95 2482.86,792.05 2489.51,794.61 2497.63,797.70 2504.49,800.31 2515.16,804.38 2531.79,810.68 2546.18,816.18 2564.22,823.10 2582.16,829.95 2595.20,834.99">