<?xml version='1.0' encoding='utf-8'?>
<nodes>
    <node id="node_122_start" x="589040.3041927577" y="3267898.898752416" type="priority" />
    <node id="node_124_start" x="588980.893899179" y="3267876.3518774174" type="priority" />
    <node id="node_125_end" x="589697.306527353" y="3268122.6666662362" type="priority" />
    <node id="node_126_start" x="588983.1172478084" y="3267869.806258347" type="priority" />
    <node id="node_126_end" x="589041.5486538173" y="3267895.544321266" type="priority" />
    <node id="node_128_start" x="589666.1215755707" y="3268138.01980063" type="priority" />
    <node id="node_128_end" x="589799.4767238854" y="3268189.1206456097" type="priority" />
    <node id="node_131_end" x="590251.8673491245" y="3268361.949701515" type="priority" />
    <node id="node_132_start" x="589870.3058616031" y="3268215.996667803" type="priority" />
    <node id="node_132_end" x="589906.0774929284" y="3268229.68261167" type="priority" />
    <node id="node_133_start" x="590323.1617365843" y="3268389.227899638" type="priority" />
    <node id="node_143_end" x="589994.3902523278" y="3268263.4796850327" type="priority" />
    <node id="node_144_start" x="588281.7201472879" y="3267627.690576699" type="priority" />
    <node id="node_147_start" x="586385.6896908049" y="3267041.3555241493" type="priority" />
    <node id="node_148_end" x="588318.1921016934" y="3267618.5540868896" type="priority" />
    <node id="node_153_start" x="590254.5097133876" y="3268355.705042209" type="priority" />
    <node id="node_153_end" x="590324.6727534289" y="3268385.9295444153" type="priority" />
    <node id="node_154_start" x="592794.4287720997" y="3269407.7338812654" type="priority" />
    <node id="node_154_end" x="592936.4012929688" y="3269527.758579767" type="priority" />
    <node id="node_156_start" x="595538.6273891692" y="3271780.3016151455" type="priority" />
    <node id="node_156_end" x="595692.9853266311" y="3271877.9583942113" type="priority" />
    <node id="node_157_end" x="593514.5333859983" y="3270232.846003823" type="priority" />
    <node id="node_158_start" x="594970.3083578094" y="3271415.818288547" type="priority" />
    <node id="node_158_end" x="595116.9896023043" y="3271516.328439918" type="priority" />
    <node id="node_159_start" x="593126.2871736012" y="3269736.4949484398" type="priority" />
    <node id="node_160_start" x="594403.7369527641" y="3271020.4111539423" type="priority" />
    <node id="node_160_end" x="594508.386028266" y="3271095.6785988677" type="priority" />
    <node id="node_161_end" x="592650.3951820595" y="3269309.939576632" type="priority" />
    <node id="node_162_start" x="593925.8851081546" y="3270681.972443932" type="priority" />
    <node id="node_163_end" x="595296.3696143194" y="3271629.213331248" type="priority" />
    <node id="node_167_start" x="593924.1243602914" y="3270614.1807759283" type="priority" />
    <node id="node_168_start" x="593526.7952193513" y="3270222.905393877" type="priority" />
    <node id="node_168_end" x="593665.0317469005" y="3270338.2668555626" type="priority" />
    <node id="node_169_start" x="593648.0021755458" y="3270403.865915445" type="priority" />
    <node id="node_169_end" x="593793.2189230656" y="3270565.053680486" type="priority" />
    <node id="node_172_end" x="593060.584230427" y="3269655.597388818" type="priority" />
    <node id="node_176_start" x="595729.4279263089" y="3271873.452097352" type="priority" />
    <node id="node_178_start" x="594979.6895599012" y="3271401.861003447" type="priority" />
    <node id="node_178_end" x="595070.3348415432" y="3271454.22730229" type="priority" />
    <node id="node_190_end" x="592659.930786324" y="3269294.6234611548" type="priority" />
    <node id="node_193_end" x="596166.0478689346" y="3272190.75951761" type="priority" />
    <node id="node_195_end" x="592768.8681120636" y="3269352.8411351107" type="priority" />
    <node id="junction_8" x="0.0" y="0.0" type="priority" />
    <node id="junction_64" x="0.0" y="0.0" type="priority" />
    <node id="junction_59" x="0.0" y="0.0" type="priority" />
    <node id="junction_108" x="0.0" y="0.0" type="priority" />
    <node id="junction_4" x="0.0" y="0.0" type="priority" />
    <node id="junction_60" x="0.0" y="0.0" type="priority" />
    <node id="junction_9" x="0.0" y="0.0" type="priority" />
    <node id="junction_5" x="0.0" y="0.0" type="priority" />
    <node id="junction_61" x="0.0" y="0.0" type="priority" />
    <node id="junction_2" x="0.0" y="0.0" type="priority" />
    <node id="junction_58" x="0.0" y="0.0" type="priority" />
    <node id="junction_15" x="0.0" y="0.0" type="priority" />
    <node id="junction_16" x="0.0" y="0.0" type="priority" />
    <node id="junction_71" x="0.0" y="0.0" type="priority" />
    <node id="junction_14" x="0.0" y="0.0" type="priority" />
    <node id="junction_72" x="0.0" y="0.0" type="priority" />
    <node id="junction_70" x="0.0" y="0.0" type="priority" />
    <node id="junction_1" x="0.0" y="0.0" type="priority" />
    <node id="junction_73" x="0.0" y="0.0" type="priority" />
    <node id="junction_17" x="0.0" y="0.0" type="priority" />
    <node id="junction_18" x="0.0" y="0.0" type="priority" />
    <node id="junction_19" x="0.0" y="0.0" type="priority" />
    <node id="junction_74" x="0.0" y="0.0" type="priority" />
    <node id="junction_76" x="0.0" y="0.0" type="priority" />
    <node id="junction_7" x="0.0" y="0.0" type="priority" />
    <node id="junction_20" x="0.0" y="0.0" type="priority" />
    <node id="junction_75" x="0.0" y="0.0" type="priority" />
    <node id="junction_21" x="0.0" y="0.0" type="priority" />
    <node id="junction_77" x="0.0" y="0.0" type="priority" />
    <node id="junction_78" x="0.0" y="0.0" type="priority" />
    <node id="junction_62" x="0.0" y="0.0" type="priority" />
    <node id="junction_22" x="0.0" y="0.0" type="priority" />
    <node id="junction_79" x="0.0" y="0.0" type="priority" />
    <node id="junction_23" x="0.0" y="0.0" type="priority" />
    <node id="junction_3" x="0.0" y="0.0" type="priority" />
    <node id="junction_80" x="0.0" y="0.0" type="priority" />
    <node id="junction_24" x="0.0" y="0.0" type="priority" />
    <node id="junction_25" x="0.0" y="0.0" type="priority" />
    <node id="junction_81" x="0.0" y="0.0" type="priority" />
    <node id="junction_26" x="0.0" y="0.0" type="priority" />
    <node id="junction_82" x="0.0" y="0.0" type="priority" />
    <node id="junction_27" x="0.0" y="0.0" type="priority" />
    <node id="junction_83" x="0.0" y="0.0" type="priority" />
    <node id="junction_28" x="0.0" y="0.0" type="priority" />
    <node id="junction_84" x="0.0" y="0.0" type="priority" />
    <node id="junction_85" x="0.0" y="0.0" type="priority" />
    <node id="junction_29" x="0.0" y="0.0" type="priority" />
    <node id="junction_86" x="0.0" y="0.0" type="priority" />
    <node id="junction_87" x="0.0" y="0.0" type="priority" />
    <node id="junction_30" x="0.0" y="0.0" type="priority" />
    <node id="junction_6" x="0.0" y="0.0" type="priority" />
    <node id="junction_88" x="0.0" y="0.0" type="priority" />
    <node id="junction_31" x="0.0" y="0.0" type="priority" />
    <node id="junction_89" x="0.0" y="0.0" type="priority" />
    <node id="junction_32" x="0.0" y="0.0" type="priority" />
    <node id="junction_33" x="0.0" y="0.0" type="priority" />
    <node id="junction_91" x="0.0" y="0.0" type="priority" />
    <node id="junction_34" x="0.0" y="0.0" type="priority" />
    <node id="junction_90" x="0.0" y="0.0" type="priority" />
    <node id="junction_92" x="0.0" y="0.0" type="priority" />
    <node id="junction_37" x="0.0" y="0.0" type="priority" />
    <node id="junction_36" x="0.0" y="0.0" type="priority" />
    <node id="junction_35" x="0.0" y="0.0" type="priority" />
    <node id="junction_94" x="0.0" y="0.0" type="priority" />
    <node id="junction_93" x="0.0" y="0.0" type="priority" />
    <node id="junction_38" x="0.0" y="0.0" type="priority" />
    <node id="junction_95" x="0.0" y="0.0" type="priority" />
    <node id="junction_96" x="0.0" y="0.0" type="priority" />
    <node id="junction_39" x="0.0" y="0.0" type="priority" />
    <node id="junction_111" x="0.0" y="0.0" type="priority" />
    <node id="junction_99" x="0.0" y="0.0" type="priority" />
    <node id="junction_97" x="0.0" y="0.0" type="priority" />
    <node id="junction_41" x="0.0" y="0.0" type="priority" />
    <node id="junction_40" x="0.0" y="0.0" type="priority" />
    <node id="junction_106" x="0.0" y="0.0" type="priority" />
    <node id="junction_100" x="0.0" y="0.0" type="priority" />
    <node id="junction_42" x="0.0" y="0.0" type="priority" />
    <node id="junction_101" x="0.0" y="0.0" type="priority" />
    <node id="junction_47" x="0.0" y="0.0" type="priority" />
    <node id="junction_43" x="0.0" y="0.0" type="priority" />
    <node id="junction_98" x="0.0" y="0.0" type="priority" />
    <node id="junction_103" x="0.0" y="0.0" type="priority" />
    <node id="junction_44" x="0.0" y="0.0" type="priority" />
    <node id="junction_102" x="0.0" y="0.0" type="priority" />
    <node id="junction_104" x="0.0" y="0.0" type="priority" />
    <node id="junction_63" x="0.0" y="0.0" type="priority" />
    <node id="junction_105" x="0.0" y="0.0" type="priority" />
    <node id="junction_45" x="0.0" y="0.0" type="priority" />
    <node id="junction_46" x="0.0" y="0.0" type="priority" />
    <node id="junction_48" x="0.0" y="0.0" type="priority" />
    <node id="junction_107" x="0.0" y="0.0" type="priority" />
    <node id="junction_49" x="0.0" y="0.0" type="priority" />
    <node id="junction_109" x="0.0" y="0.0" type="priority" />
    <node id="junction_50" x="0.0" y="0.0" type="priority" />
    <node id="junction_51" x="0.0" y="0.0" type="priority" />
    <node id="junction_110" x="0.0" y="0.0" type="priority" />
    <node id="junction_52" x="0.0" y="0.0" type="priority" />
    <node id="junction_53" x="0.0" y="0.0" type="priority" />
    <node id="junction_113" x="0.0" y="0.0" type="priority" />
    <node id="junction_54" x="0.0" y="0.0" type="priority" />
    <node id="junction_55" x="0.0" y="0.0" type="priority" />
    <node id="junction_57" x="0.0" y="0.0" type="priority" />
    <node id="junction_114" x="0.0" y="0.0" type="priority" />
    <node id="junction_56" x="0.0" y="0.0" type="priority" />
    <node id="junction_66" x="592479.593888121" y="3269215.782368224" type="priority" />
    <node id="junction_65" x="589583.8545111581" y="3268104.068170752" type="priority" />
    <node id="junction_68" x="593439.6805249722" y="3270132.777035598" type="priority" />
    <node id="junction_10" x="590116.9716351986" y="3268310.4180470966" type="priority" />
    <node id="j_merge_start_12" x="593998.9664080004" y="3270736.9269756577" type="priority" />
    <node id="j_merge_end_12" x="594171.3692343713" y="3270857.5132430014" type="priority" />
    <node id="junction_11" x="588829.1350915723" y="3267818.3223977583" type="priority" />
    <node id="junction_13" x="595976.815380812" y="3272067.279283436" type="priority" />
    <node id="junction_69" x="594860.1474854602" y="3271336.828201107" type="priority" />
    <node id="junction_67" x="588208.7336281826" y="3267602.5826442013" type="priority" />
</nodes>