<?xml version='1.0' encoding='utf-8'?>
<nodes>
    <node id="node_100_start" x="763206.2754188534" y="3294354.403458762" type="priority" />
    <node id="node_103_end" x="762976.7181180777" y="3294317.5996933896" type="priority" />
    <node id="node_111_end" x="762909.0612752629" y="3294306.77405389" type="priority" />
    <node id="node_116_start" x="763203.7106799246" y="3294377.3326390875" type="priority" />
    <node id="node_118_start" x="763244.0533866971" y="3294385.8724791287" type="priority" />
    <node id="node_119_start" x="760990.4517635262" y="3293856.3343937127" type="priority" />
    <node id="node_119_end" x="760952.1980392344" y="3293846.34815412" type="priority" />
    <node id="node_120_start" x="761552.8502313502" y="3293992.9572589407" type="priority" />
    <node id="node_120_end" x="761545.2426776846" y="3293990.998451059" type="priority" />
    <node id="node_121_end" x="761271.5194468922" y="3293920.719246175" type="priority" />
    <node id="node_122_start" x="762785.0388755286" y="3294286.2748991144" type="priority" />
    <node id="node_123_end" x="760574.1923643671" y="3293747.445246442" type="priority" />
    <node id="node_124_end" x="761236.7530399954" y="3293911.729923735" type="priority" />
    <node id="node_126_start" x="758484.6141738921" y="3293211.6126987943" type="priority" />
    <node id="node_126_end" x="758226.7265158482" y="3293145.225680763" type="priority" />
    <node id="node_128_start" x="757259.7868899987" y="3292897.169196277" type="priority" />
    <node id="node_128_end" x="757201.5758414327" y="3292882.1851579472" type="priority" />
    <node id="node_129_end" x="757737.3787192792" y="3293019.6779752867" type="priority" />
    <node id="node_131_end" x="758475.4734869295" y="3293230.520695519" type="priority" />
    <node id="node_133_start" x="757855.88549041" y="3293072.243485847" type="priority" />
    <node id="node_236_start" x="757554.1247298012" y="3292972.5907074027" type="priority" />
    <node id="node_238_start" x="757735.3444220826" y="3293026.5000622566" type="priority" />
    <node id="node_238_end" x="757553.3672131422" y="3292976.268675161" type="priority" />
    <node id="node_240_start" x="762888.3162619909" y="3294318.488672655" type="priority" />
    <node id="node_240_end" x="762783.3283990492" y="3294297.3983495054" type="priority" />
    <node id="node_244_start" x="761235.3097374276" y="3293918.9758620984" type="priority" />
    <node id="node_245_start" x="761236.3672324931" y="3293915.4844500674" type="priority" />
    <node id="node_806_start" x="758855.6727214648" y="3293304.202805681" type="priority" />
    <node id="node_821_end" x="759445.9391209305" y="3293455.6580971912" type="priority" />
    <node id="node_822_end" x="758907.0422803015" y="3293317.24350939" type="priority" />
    <node id="node_824_end" x="758612.8958730926" y="3293244.5561489095" type="priority" />
    <node id="node_826_end" x="757836.1314237891" y="3293044.9840384107" type="priority" />
    <node id="node_86_start" x="765041.2966880284" y="3294648.4675260657" type="priority" />
    <node id="node_90_start" x="762890.2796072243" y="3294303.767403091" type="priority" />
    <node id="node_902_end" x="756856.2952344604" y="3292793.7856789376" type="priority" />
    <node id="node_903_end" x="755667.2376138372" y="3292486.2959659966" type="priority" />
    <node id="node_93_start" x="762973.9532297449" y="3294335.663330418" type="priority" />
    <node id="node_93_end" x="762907.3721887558" y="3294321.6581847556" type="priority" />
    <node id="node_106_start" x="765185.2033123495" y="3294671.5157127962" type="priority" />
    <node id="node_900_end" x="755627.3990110812" y="3292477.1996206352" type="priority" />
    <node id="junction_63" x="0.0" y="0.0" type="priority" />
    <node id="junction_1" x="0.0" y="0.0" type="priority" />
    <node id="junction_70" x="0.0" y="0.0" type="priority" />
    <node id="junction_2" x="0.0" y="0.0" type="priority" />
    <node id="junction_64" x="0.0" y="0.0" type="priority" />
    <node id="junction_10" x="0.0" y="0.0" type="priority" />
    <node id="junction_73" x="0.0" y="0.0" type="priority" />
    <node id="junction_11" x="0.0" y="0.0" type="priority" />
    <node id="junction_74" x="0.0" y="0.0" type="priority" />
    <node id="junction_77" x="0.0" y="0.0" type="priority" />
    <node id="junction_75" x="0.0" y="0.0" type="priority" />
    <node id="junction_3" x="0.0" y="0.0" type="priority" />
    <node id="junction_16" x="0.0" y="0.0" type="priority" />
    <node id="junction_78" x="0.0" y="0.0" type="priority" />
    <node id="junction_79" x="0.0" y="0.0" type="priority" />
    <node id="junction_17" x="0.0" y="0.0" type="priority" />
    <node id="junction_19" x="0.0" y="0.0" type="priority" />
    <node id="junction_18" x="0.0" y="0.0" type="priority" />
    <node id="junction_76" x="0.0" y="0.0" type="priority" />
    <node id="junction_12" x="0.0" y="0.0" type="priority" />
    <node id="junction_14" x="0.0" y="0.0" type="priority" />
    <node id="junction_84" x="0.0" y="0.0" type="priority" />
    <node id="junction_65" x="0.0" y="0.0" type="priority" />
    <node id="junction_85" x="0.0" y="0.0" type="priority" />
    <node id="junction_55" x="0.0" y="0.0" type="priority" />
    <node id="junction_86" x="0.0" y="0.0" type="priority" />
    <node id="junction_81" x="0.0" y="0.0" type="priority" />
    <node id="junction_21" x="0.0" y="0.0" type="priority" />
    <node id="junction_82" x="0.0" y="0.0" type="priority" />
    <node id="junction_22" x="0.0" y="0.0" type="priority" />
    <node id="junction_80" x="0.0" y="0.0" type="priority" />
    <node id="junction_20" x="0.0" y="0.0" type="priority" />
    <node id="junction_4" x="0.0" y="0.0" type="priority" />
    <node id="junction_23" x="0.0" y="0.0" type="priority" />
    <node id="junction_83" x="0.0" y="0.0" type="priority" />
    <node id="junction_66" x="0.0" y="0.0" type="priority" />
    <node id="junction_24" x="0.0" y="0.0" type="priority" />
    <node id="junction_88" x="0.0" y="0.0" type="priority" />
    <node id="junction_26" x="0.0" y="0.0" type="priority" />
    <node id="junction_27" x="0.0" y="0.0" type="priority" />
    <node id="junction_28" x="0.0" y="0.0" type="priority" />
    <node id="junction_91" x="0.0" y="0.0" type="priority" />
    <node id="junction_29" x="0.0" y="0.0" type="priority" />
    <node id="junction_92" x="0.0" y="0.0" type="priority" />
    <node id="junction_30" x="0.0" y="0.0" type="priority" />
    <node id="junction_31" x="0.0" y="0.0" type="priority" />
    <node id="junction_32" x="0.0" y="0.0" type="priority" />
    <node id="junction_96" x="0.0" y="0.0" type="priority" />
    <node id="junction_33" x="0.0" y="0.0" type="priority" />
    <node id="junction_98" x="0.0" y="0.0" type="priority" />
    <node id="junction_99" x="0.0" y="0.0" type="priority" />
    <node id="junction_100" x="0.0" y="0.0" type="priority" />
    <node id="junction_37" x="0.0" y="0.0" type="priority" />
    <node id="junction_36" x="0.0" y="0.0" type="priority" />
    <node id="junction_35" x="0.0" y="0.0" type="priority" />
    <node id="junction_97" x="0.0" y="0.0" type="priority" />
    <node id="junction_87" x="0.0" y="0.0" type="priority" />
    <node id="junction_89" x="0.0" y="0.0" type="priority" />
    <node id="junction_90" x="0.0" y="0.0" type="priority" />
    <node id="junction_93" x="0.0" y="0.0" type="priority" />
    <node id="junction_94" x="0.0" y="0.0" type="priority" />
    <node id="junction_95" x="0.0" y="0.0" type="priority" />
    <node id="junction_34" x="0.0" y="0.0" type="priority" />
    <node id="junction_38" x="0.0" y="0.0" type="priority" />
    <node id="junction_39" x="0.0" y="0.0" type="priority" />
    <node id="junction_40" x="0.0" y="0.0" type="priority" />
    <node id="junction_102" x="0.0" y="0.0" type="priority" />
    <node id="junction_103" x="0.0" y="0.0" type="priority" />
    <node id="junction_106" x="0.0" y="0.0" type="priority" />
    <node id="junction_42" x="0.0" y="0.0" type="priority" />
    <node id="junction_104" x="0.0" y="0.0" type="priority" />
    <node id="junction_41" x="0.0" y="0.0" type="priority" />
    <node id="junction_43" x="0.0" y="0.0" type="priority" />
    <node id="junction_44" x="0.0" y="0.0" type="priority" />
    <node id="junction_45" x="0.0" y="0.0" type="priority" />
    <node id="junction_108" x="0.0" y="0.0" type="priority" />
    <node id="junction_46" x="0.0" y="0.0" type="priority" />
    <node id="junction_68" x="0.0" y="0.0" type="priority" />
    <node id="junction_47" x="0.0" y="0.0" type="priority" />
    <node id="junction_49" x="0.0" y="0.0" type="priority" />
    <node id="junction_111" x="0.0" y="0.0" type="priority" />
    <node id="junction_112" x="0.0" y="0.0" type="priority" />
    <node id="junction_50" x="0.0" y="0.0" type="priority" />
    <node id="junction_113" x="0.0" y="0.0" type="priority" />
    <node id="junction_52" x="0.0" y="0.0" type="priority" />
    <node id="junction_51" x="0.0" y="0.0" type="priority" />
    <node id="junction_53" x="0.0" y="0.0" type="priority" />
    <node id="junction_116" x="0.0" y="0.0" type="priority" />
    <node id="junction_115" x="0.0" y="0.0" type="priority" />
    <node id="junction_54" x="0.0" y="0.0" type="priority" />
    <node id="junction_48" x="0.0" y="0.0" type="priority" />
    <node id="junction_117" x="0.0" y="0.0" type="priority" />
    <node id="junction_101" x="0.0" y="0.0" type="priority" />
    <node id="junction_105" x="0.0" y="0.0" type="priority" />
    <node id="junction_107" x="0.0" y="0.0" type="priority" />
    <node id="junction_109" x="0.0" y="0.0" type="priority" />
    <node id="junction_110" x="0.0" y="0.0" type="priority" />
    <node id="junction_114" x="0.0" y="0.0" type="priority" />
    <node id="junction_13" x="0.0" y="0.0" type="priority" />
    <node id="junction_7" x="0.0" y="0.0" type="priority" />
    <node id="junction_15" x="0.0" y="0.0" type="priority" />
    <node id="junction_119" x="0.0" y="0.0" type="priority" />
    <node id="junction_120" x="0.0" y="0.0" type="priority" />
    <node id="junction_56" x="0.0" y="0.0" type="priority" />
    <node id="junction_118" x="0.0" y="0.0" type="priority" />
    <node id="junction_61" x="0.0" y="0.0" type="priority" />
    <node id="junction_122" x="0.0" y="0.0" type="priority" />
    <node id="junction_8" x="0.0" y="0.0" type="priority" />
    <node id="junction_62" x="0.0" y="0.0" type="priority" />
    <node id="junction_71" x="0.0" y="0.0" type="priority" />
    <node id="junction_57" x="0.0" y="0.0" type="priority" />
    <node id="junction_5" x="0.0" y="0.0" type="priority" />
    <node id="junction_123" x="0.0" y="0.0" type="priority" />
    <node id="junction_25" x="0.0" y="0.0" type="priority" />
    <node id="junction_124" x="0.0" y="0.0" type="priority" />
    <node id="junction_58" x="0.0" y="0.0" type="priority" />
    <node id="junction_59" x="0.0" y="0.0" type="priority" />
    <node id="junction_125" x="0.0" y="0.0" type="priority" />
    <node id="junction_126" x="0.0" y="0.0" type="priority" />
    <node id="junction_60" x="0.0" y="0.0" type="priority" />
    <node id="junction_72" x="0.0" y="0.0" type="priority" />
    <node id="junction_127" x="0.0" y="0.0" type="priority" />
    <node id="junction_9" x="757776.6843804348" y="3293033.270721422" type="priority" />
    <node id="junction_121" x="758689.8426406657" y="3293266.7412479375" type="priority" />
    <node id="junction_6" x="763030.0550890099" y="3294332.996067134" type="priority" />
</nodes>