<?xml version="1.0" encoding="UTF-8"?>

<!-- generated on 2025-10-19 17:33:43 by Eclipse SUMO netconvert Version 1.23.1
<netconvertConfiguration xmlns:xsi="http://www.w3.org/2001/XMLSchema-instance" xsi:noNamespaceSchemaLocation="http://sumo.dlr.de/xsd/netconvertConfiguration.xsd">

    <input>
        <node-files value="/home/sdai/harry/TeraSim/jupiter/wb/jupiter_wb_tiles/tile_0148/tile_0148.nod.xml"/>
        <edge-files value="/home/sdai/harry/TeraSim/jupiter/wb/jupiter_wb_tiles/tile_0148/tile_0148.edg.xml"/>
        <connection-files value="/home/sdai/harry/TeraSim/jupiter/wb/jupiter_wb_tiles/tile_0148/tile_0148.con.xml"/>
    </input>

    <output>
        <output-file value="/home/sdai/harry/TeraSim/jupiter/wb/jupiter_wb_tiles/tile_0148/tile_0148.net.xml"/>
        <output.street-names value="true"/>
        <output.original-names value="true"/>
    </output>

    <processing>
        <geometry.remove value="false"/>
        <geometry.min-dist value="0.5"/>
        <edges.join value="false"/>
    </processing>

    <junctions>
        <no-internal-links value="false"/>
        <no-turnarounds value="true"/>
        <junctions.join value="true"/>
        <junctions.join-dist value="10"/>
        <junctions.corner-detail value="5"/>
        <junctions.internal-link-detail value="5"/>
        <junctions.limit-turn-speed value="5.5"/>
        <rectangular-lane-cut value="true"/>
        <check-lane-foes.all value="true"/>
    </junctions>

</netconvertConfiguration>
-->

<net version="1.20" junctionCornerDetail="5" junctionLinkDetail="5" rectangularLaneCut="true" limitTurnSpeed="5.50" checkLaneFoesAll="1" xmlns:xsi="http://www.w3.org/2001/XMLSchema-instance" xsi:noNamespaceSchemaLocation="http://sumo.dlr.de/xsd/net_file.xsd">

    <location netOffset="-755667.24,-3292486.30" convBoundary="0.00,0.00,9374.06,2162.17" origBoundary="0.00,0.00,765185.20,3294671.52" projParameter="!"/>

    <edge id=":junction_121_0" function="internal">
        <lane id=":junction_121_0_0" index="0" speed="13.89" length="114.47" width="3.66" shape="3093.14,801.32 3072.24,796.71 3035.38,788.76 2999.41,781.12 2981.20,777.42"/>
    </edge>
    <edge id=":junction_121_1" function="internal">
        <lane id=":junction_121_1_0" index="0" speed="13.89" length="114.55" width="3.66" shape="3093.14,801.32 2982.01,773.37"/>
        <lane id=":junction_121_1_1" index="1" speed="13.89" length="114.55" width="3.66" shape="3093.98,797.75 2982.94,769.83"/>
    </edge>
    <edge id=":junction_6_0" function="internal">
        <lane id=":junction_6_0_0" index="0" speed="13.89" length="64.15" width="3.66" shape="7381.06,1865.16 7318.79,1853.19"/>
        <lane id=":junction_6_0_1" index="1" speed="13.89" length="64.15" width="3.66" shape="7381.06,1865.16 7373.60,1862.48 7359.77,1857.04 7341.31,1850.86 7319.96,1845.96"/>
        <lane id=":junction_6_0_2" index="2" speed="13.89" length="64.15" width="3.66" shape="7381.06,1865.16 7373.69,1861.92 7360.06,1855.24 7341.80,1847.81 7320.54,1842.35"/>
    </edge>
    <edge id=":junction_6_3" function="internal">
        <lane id=":junction_6_3_0" index="0" disallow="all" speed="13.89" length="63.32" width="3.66" shape="7381.92,1859.60 7319.38,1849.57"/>
        <lane id=":junction_6_3_1" index="1" speed="13.89" length="63.32" width="3.66" shape="7382.50,1855.99 7319.96,1845.96"/>
        <lane id=":junction_6_3_2" index="2" speed="13.89" length="63.32" width="3.66" shape="7383.07,1852.37 7320.54,1842.35"/>
        <lane id=":junction_6_3_3" index="3" speed="13.89" length="63.32" width="3.66" shape="7383.64,1848.76 7321.13,1838.73"/>
        <lane id=":junction_6_3_4" index="4" disallow="all" speed="13.89" length="63.32" width="3.66" shape="7384.22,1845.14 7321.71,1835.12"/>
    </edge>
    <edge id=":junction_9_0" function="internal">
        <lane id=":junction_9_0_0" index="0" speed="13.89" length="52.31" width="3.66" shape="2124.31,559.75 2074.45,543.94"/>
    </edge>
    <edge id=":junction_9_1" function="internal">
        <lane id=":junction_9_1_0" index="0" speed="13.89" length="52.10" width="3.66" shape="2125.83,553.30 2075.36,540.39"/>
        <lane id=":junction_9_1_1" index="1" speed="13.89" length="52.10" width="3.66" shape="2126.74,549.76 2076.27,536.85"/>
    </edge>
    <edge id=":node_100_start_0" function="internal">
        <lane id=":node_100_start_0_0" index="0" speed="13.89" length="0.30" width="3.66" shape="7537.17,1880.78 7536.87,1880.73"/>
        <lane id=":node_100_start_0_1" index="1" speed="13.89" length="0.30" width="3.66" shape="7537.74,1877.16 7537.45,1877.12"/>
        <lane id=":node_100_start_0_2" index="2" speed="13.89" length="0.30" width="3.66" shape="7538.32,1873.55 7538.03,1873.50"/>
    </edge>
    <edge id=":node_103_end_0" function="internal">
        <lane id=":node_103_end_0_0" index="0" speed="13.89" length="3.81" width="3.66" shape="7307.94,1851.44 7304.20,1850.71"/>
    </edge>
    <edge id=":node_103_end_1" function="internal">
        <lane id=":node_103_end_1_0" index="0" speed="13.89" length="5.79" width="3.66" shape="7307.94,1851.44 7306.13,1843.74"/>
        <lane id=":node_103_end_1_1" index="1" speed="13.89" length="5.79" width="3.66" shape="7309.10,1844.22 7306.71,1840.13"/>
        <lane id=":node_103_end_1_2" index="2" speed="13.89" length="5.79" width="3.66" shape="7309.68,1840.60 7307.29,1836.51"/>
    </edge>
    <edge id=":node_111_end_0" function="internal">
        <lane id=":node_111_end_0_0" index="0" speed="13.89" length="4.09" width="3.66" shape="7240.75,1837.36 7237.77,1836.50"/>
        <lane id=":node_111_end_0_1" index="1" speed="13.89" length="4.09" width="3.66" shape="7240.75,1837.36 7238.34,1832.89"/>
    </edge>
    <edge id=":node_111_end_2" function="internal">
        <lane id=":node_111_end_2_0" index="0" speed="13.89" length="3.00" width="3.66" shape="7241.30,1833.36 7238.34,1832.89"/>
        <lane id=":node_111_end_2_1" index="1" speed="13.89" length="3.00" width="3.66" shape="7241.88,1829.75 7238.92,1829.28"/>
        <lane id=":node_111_end_2_2" index="2" speed="13.89" length="3.00" width="3.66" shape="7242.46,1826.14 7239.50,1825.66"/>
    </edge>
    <edge id=":node_116_start_0" function="internal">
        <lane id=":node_116_start_0_0" index="0" speed="13.89" length="0.30" width="3.66" shape="7536.25,1892.86 7535.95,1892.80"/>
    </edge>
    <edge id=":node_119_end_0" function="internal">
        <lane id=":node_119_end_0_0" index="0" speed="13.89" length="0.30" width="3.66" shape="5283.75,1365.41 5283.46,1365.34"/>
        <lane id=":node_119_end_0_1" index="1" speed="13.89" length="0.30" width="3.66" shape="5284.66,1361.86 5284.36,1361.79"/>
    </edge>
    <edge id=":node_119_start_0" function="internal">
        <lane id=":node_119_start_0_0" index="0" speed="13.89" length="8.03" width="3.66" shape="5325.77,1376.36 5317.98,1374.32"/>
        <lane id=":node_119_start_0_1" index="1" speed="13.89" length="8.03" width="3.66" shape="5326.68,1372.81 5318.92,1370.79"/>
    </edge>
    <edge id=":node_119_start_2" function="internal">
        <lane id=":node_119_start_2_0" index="0" speed="13.89" length="7.94" width="3.66" shape="5326.62,1372.74 5318.92,1370.79"/>
    </edge>
    <edge id=":node_120_end_0" function="internal">
        <lane id=":node_120_end_0_0" index="0" speed="13.89" length="0.30" width="3.66" shape="5874.96,1517.15 5874.67,1517.07"/>
        <lane id=":node_120_end_0_1" index="1" speed="13.89" length="0.30" width="3.66" shape="5875.87,1513.60 5875.58,1513.53"/>
        <lane id=":node_120_end_0_2" index="2" speed="13.89" length="0.30" width="3.66" shape="5876.78,1510.06 5876.49,1509.98"/>
    </edge>
    <edge id=":node_120_start_0" function="internal">
        <lane id=":node_120_start_0_0" index="0" speed="13.89" length="0.30" width="3.66" shape="5882.53,1519.10 5882.25,1519.03"/>
        <lane id=":node_120_start_0_1" index="1" speed="13.89" length="0.30" width="3.66" shape="5883.46,1515.56 5883.17,1515.48"/>
        <lane id=":node_120_start_0_2" index="2" speed="13.89" length="0.30" width="3.66" shape="5884.38,1512.02 5884.08,1511.94"/>
    </edge>
    <edge id=":node_121_end_0" function="internal">
        <lane id=":node_121_end_0_0" index="0" speed="13.89" length="0.13" width="3.66" shape="5601.26,1446.87 5601.08,1446.83"/>
        <lane id=":node_121_end_0_1" index="1" speed="13.89" length="0.13" width="3.66" shape="5602.12,1443.32 5601.99,1443.28"/>
        <lane id=":node_121_end_0_2" index="2" speed="13.89" length="0.13" width="3.66" shape="5602.99,1439.76 5602.91,1439.74"/>
    </edge>
    <edge id=":node_122_start_0" function="internal">
        <lane id=":node_122_start_0_0" index="0" speed="13.89" length="8.03" width="3.66" shape="7119.44,1813.62 7111.60,1811.87"/>
    </edge>
    <edge id=":node_122_start_1" function="internal">
        <lane id=":node_122_start_1_0" index="0" speed="13.89" length="8.00" width="3.66" shape="7119.47,1813.29 7111.60,1811.87"/>
        <lane id=":node_122_start_1_1" index="1" speed="13.89" length="8.00" width="3.66" shape="7120.12,1809.69 7112.25,1808.27"/>
        <lane id=":node_122_start_1_2" index="2" speed="13.89" length="8.00" width="3.66" shape="7120.77,1806.09 7112.89,1804.67"/>
    </edge>
    <edge id=":node_123_end_0" function="internal">
        <lane id=":node_123_end_0_0" index="0" speed="13.89" length="0.29" width="3.66" shape="4905.52,1266.45 4905.22,1266.36"/>
        <lane id=":node_123_end_0_1" index="1" speed="13.89" length="0.29" width="3.66" shape="4906.56,1262.95 4906.29,1262.87"/>
    </edge>
    <edge id=":node_124_end_0" function="internal">
        <lane id=":node_124_end_0_0" index="0" speed="13.89" length="3.07" width="3.66" shape="5567.96,1438.26 5564.97,1437.55"/>
        <lane id=":node_124_end_0_1" index="1" speed="13.89" length="3.07" width="3.66" shape="5568.87,1434.72 5565.88,1434.01"/>
    </edge>
    <edge id=":node_124_end_2" function="internal">
        <lane id=":node_124_end_2_0" index="0" speed="13.89" length="3.06" width="3.66" shape="5569.79,1431.18 5566.81,1430.51"/>
    </edge>
    <edge id=":node_126_end_0" function="internal">
        <lane id=":node_126_end_0_0" index="0" speed="13.89" length="0.30" width="3.66" shape="2558.29,664.29 2557.99,664.22"/>
        <lane id=":node_126_end_0_1" index="1" speed="13.89" length="0.30" width="3.66" shape="2559.18,660.74 2558.90,660.67"/>
    </edge>
    <edge id=":node_126_start_0" function="internal">
        <lane id=":node_126_start_0_0" index="0" speed="13.89" length="0.30" width="3.66" shape="2816.12,730.66 2815.82,730.58"/>
        <lane id=":node_126_start_0_1" index="1" speed="13.89" length="0.30" width="3.66" shape="2817.05,727.12 2816.76,727.05"/>
    </edge>
    <edge id=":node_128_end_0" function="internal">
        <lane id=":node_128_end_0_0" index="0" speed="13.89" length="0.30" width="3.66" shape="1533.12,401.25 1532.83,401.17"/>
        <lane id=":node_128_end_0_1" index="1" speed="13.89" length="0.30" width="3.66" shape="1534.03,397.70 1533.74,397.63"/>
    </edge>
    <edge id=":node_128_start_0" function="internal">
        <lane id=":node_128_start_0_0" index="0" speed="13.89" length="0.30" width="3.66" shape="1591.32,416.23 1591.04,416.15"/>
        <lane id=":node_128_start_0_1" index="1" speed="13.89" length="0.30" width="3.66" shape="1592.24,412.68 1591.95,412.61"/>
    </edge>
    <edge id=":node_129_end_0" function="internal">
        <lane id=":node_129_end_0_0" index="0" speed="13.89" length="3.14" width="3.66" shape="2069.19,542.59 2066.22,541.59"/>
    </edge>
    <edge id=":node_129_end_1" function="internal">
        <lane id=":node_129_end_1_0" index="0" speed="13.89" length="3.00" width="3.66" shape="2070.10,539.04 2067.20,538.30"/>
        <lane id=":node_129_end_1_1" index="1" speed="13.89" length="3.00" width="3.66" shape="2071.01,535.50 2068.11,534.75"/>
    </edge>
    <edge id=":node_236_start_0" function="internal">
        <lane id=":node_236_start_0_0" index="0" speed="13.89" length="7.99" width="3.66" shape="1889.37,492.75 1881.67,490.63"/>
    </edge>
    <edge id=":node_236_start_1" function="internal">
        <lane id=":node_236_start_1_0" index="0" speed="13.89" length="7.97" width="3.66" shape="1889.39,492.60 1881.67,490.63"/>
        <lane id=":node_236_start_1_1" index="1" speed="13.89" length="7.97" width="3.66" shape="1890.30,489.06 1882.57,487.08"/>
    </edge>
    <edge id=":node_806_start_0" function="internal">
        <lane id=":node_806_start_0_0" index="0" speed="13.89" length="0.28" width="3.66" shape="3187.26,823.27 3187.02,823.21"/>
        <lane id=":node_806_start_0_1" index="1" speed="13.89" length="0.28" width="3.66" shape="3188.15,819.72 3187.85,819.65"/>
    </edge>
    <edge id=":node_821_end_0" function="internal">
        <lane id=":node_821_end_0_0" index="0" speed="13.89" length="0.30" width="3.66" shape="3777.48,974.72 3777.19,974.64"/>
        <lane id=":node_821_end_0_1" index="1" speed="13.89" length="0.30" width="3.66" shape="3778.39,971.17 3778.10,971.10"/>
    </edge>
    <edge id=":node_822_end_0" function="internal">
        <lane id=":node_822_end_0_0" index="0" speed="13.89" length="3.00" width="3.66" shape="3239.90,836.63 3236.99,835.89"/>
        <lane id=":node_822_end_0_1" index="1" speed="13.89" length="3.00" width="3.66" shape="3240.80,833.09 3237.90,832.35"/>
    </edge>
    <edge id=":node_824_end_0" function="internal">
        <lane id=":node_824_end_0_0" index="0" speed="13.89" length="3.00" width="3.66" shape="2945.74,763.95 2942.84,763.21"/>
        <lane id=":node_824_end_0_1" index="1" speed="13.89" length="3.00" width="3.66" shape="2946.66,760.41 2943.75,759.66"/>
    </edge>
    <edge id=":node_826_end_0" function="internal">
        <lane id=":node_826_end_0_0" index="0" speed="13.89" length="3.00" width="3.66" shape="2168.99,564.37 2166.08,563.63"/>
        <lane id=":node_826_end_0_1" index="1" speed="13.89" length="3.00" width="3.66" shape="2169.89,560.83 2166.99,560.09"/>
    </edge>
    <edge id=":node_902_end_0" function="internal">
        <lane id=":node_902_end_0_0" index="0" speed="13.89" length="0.10" width="3.66" shape="1187.70,312.81 1187.70,312.81"/>
        <lane id=":node_902_end_0_1" index="1" speed="13.89" length="0.10" width="3.66" shape="1188.61,309.27 1188.61,309.27"/>
    </edge>
    <edge id=":node_90_start_0" function="internal">
        <lane id=":node_90_start_0_0" index="0" speed="13.89" length="3.65" width="3.66" shape="7222.18,1834.01 7218.56,1833.53"/>
    </edge>
    <edge id=":node_90_start_1" function="internal">
        <lane id=":node_90_start_1_0" index="0" speed="13.89" length="2.99" width="3.66" shape="7222.76,1830.40 7219.80,1829.92"/>
        <lane id=":node_90_start_1_1" index="1" speed="13.89" length="2.99" width="3.66" shape="7223.33,1826.79 7220.38,1826.31"/>
        <lane id=":node_90_start_1_2" index="2" speed="13.89" length="2.99" width="3.66" shape="7223.91,1823.17 7220.97,1822.70"/>
    </edge>

    <edge id="100.0" from="node_100_start" to="junction_6" priority="-1" type="town" shape="7539.04,1868.10 7535.03,1867.46 7521.09,1865.22 7506.98,1862.96 7493.35,1860.80 7479.77,1858.61 7469.33,1856.93 7454.09,1854.48 7443.50,1852.77 7435.52,1851.50 7424.56,1849.73 7413.63,1847.98 7402.30,1846.19 7393.90,1844.82 7384.50,1843.33">
        <lane id="100.0_0" index="0" disallow="all" speed="13.89" length="156.35" width="3.66" shape="7536.29,1884.34 7532.42,1883.73 7518.48,1881.49 7504.39,1879.23 7490.75,1877.07 7477.15,1874.87 7466.72,1873.20 7451.47,1870.74 7440.89,1869.04 7432.91,1867.77 7421.95,1866.00 7411.05,1864.25 7399.70,1862.46 7391.29,1861.09 7381.92,1859.60" type="shoulder"/>
        <lane id="100.0_1" index="1" speed="13.89" length="156.35" width="3.66" shape="7536.87,1880.73 7533.00,1880.11 7519.06,1877.87 7504.97,1875.61 7491.33,1873.45 7477.73,1871.26 7467.30,1869.58 7452.06,1867.13 7441.47,1865.42 7433.49,1864.15 7422.53,1862.38 7411.62,1860.64 7400.28,1858.84 7391.87,1857.47 7382.50,1855.99"/>
        <lane id="100.0_2" index="2" speed="13.89" length="156.35" width="3.66" shape="7537.45,1877.12 7533.58,1876.50 7519.64,1874.26 7505.54,1872.00 7491.91,1869.84 7478.32,1867.65 7467.88,1865.97 7452.64,1863.52 7442.05,1861.81 7434.07,1860.54 7423.11,1858.77 7412.20,1857.02 7400.86,1855.23 7392.45,1853.86 7383.07,1852.37"/>
        <lane id="100.0_3" index="3" speed="13.89" length="156.35" width="3.66" shape="7538.03,1873.50 7534.16,1872.88 7520.22,1870.64 7506.12,1868.39 7492.49,1866.23 7478.90,1864.03 7468.46,1862.35 7453.22,1859.90 7442.63,1858.19 7434.65,1856.92 7423.69,1855.15 7412.77,1853.41 7401.43,1851.61 7393.03,1850.24 7383.64,1848.76"/>
        <lane id="100.0_4" index="4" disallow="all" speed="13.89" length="156.35" width="3.66" shape="7538.60,1869.89 7534.74,1869.27 7520.80,1867.03 7506.69,1864.77 7493.06,1862.61 7479.48,1860.42 7469.04,1858.74 7453.80,1856.29 7443.21,1854.58 7435.23,1853.31 7424.27,1851.54 7413.34,1849.79 7402.01,1848.00 7393.61,1846.63 7384.22,1845.14" type="shoulder"/>
    </edge>
    <edge id="103.0" from="junction_6" to="node_103_end" priority="-1" type="town" shape="7322.00,1833.31 7319.46,1832.90 7309.48,1831.30">
        <lane id="103.0_0" index="0" speed="13.89" length="11.00" width="3.66" shape="7318.79,1853.19 7316.27,1852.78 7307.94,1851.44"/>
        <lane id="103.0_1" index="1" disallow="all" speed="13.89" length="11.00" width="3.66" shape="7319.38,1849.57 7316.85,1849.17 7308.52,1847.83" type="shoulder"/>
        <lane id="103.0_2" index="2" speed="13.89" length="11.00" width="3.66" shape="7319.96,1845.96 7317.43,1845.55 7309.10,1844.22"/>
        <lane id="103.0_3" index="3" speed="13.89" length="11.00" width="3.66" shape="7320.54,1842.35 7318.01,1841.94 7309.68,1840.60"/>
        <lane id="103.0_4" index="4" speed="13.89" length="11.00" width="3.66" shape="7321.13,1838.73 7318.59,1838.32 7310.26,1836.99"/>
        <lane id="103.0_5" index="5" disallow="all" speed="13.89" length="11.00" width="3.66" shape="7321.71,1835.12 7319.17,1834.71 7310.84,1833.37" type="shoulder"/>
    </edge>
    <edge id="111.0" from="node_103_end" to="node_111_end" priority="-1" type="town" shape="7309.48,1831.30 7308.29,1831.11 7298.17,1829.49 7286.24,1827.59 7275.00,1825.79 7263.50,1823.96 7252.77,1822.23 7241.82,1820.47">
        <lane id="111.0_0" index="0" speed="13.89" length="65.65" width="3.66" shape="7306.13,1843.74 7296.15,1842.14 7284.22,1840.24 7272.98,1838.44 7261.48,1836.61 7250.74,1834.88 7241.30,1833.36"/>
        <lane id="111.0_1" index="1" speed="13.89" length="65.65" width="3.66" shape="7306.71,1840.13 7296.73,1838.53 7284.80,1836.63 7273.56,1834.83 7262.06,1833.00 7251.32,1831.27 7241.88,1829.75"/>
        <lane id="111.0_2" index="2" speed="13.89" length="65.65" width="3.66" shape="7307.29,1836.51 7297.31,1834.92 7285.38,1833.02 7274.14,1831.22 7262.63,1829.38 7251.90,1827.65 7242.46,1826.14"/>
        <lane id="111.0_3" index="3" disallow="all" speed="13.89" length="65.65" width="3.66" shape="7307.87,1832.90 7297.88,1831.30 7285.95,1829.40 7274.71,1827.60 7263.21,1825.77 7252.48,1824.04 7243.04,1822.52" type="shoulder"/>
    </edge>
    <edge id="116.0" from="node_116_start" to="junction_6" priority="-1" type="town" shape="7536.47,1891.03 7527.67,1889.21 7507.78,1885.35 7484.06,1880.94 7469.06,1878.28 7450.45,1875.09 7428.49,1871.36 7406.95,1867.69 7391.80,1865.10 7381.95,1863.45">
        <lane id="116.0_0" index="0" speed="13.89" length="157.35" width="3.66" shape="7535.95,1892.80 7527.31,1891.01 7507.44,1887.15 7483.74,1882.74 7468.75,1880.09 7450.14,1876.90 7428.19,1873.17 7406.64,1869.50 7391.50,1866.91 7381.06,1865.16"/>
    </edge>
    <edge id="118.0" from="node_118_start" to="node_116_start" priority="-1" type="town" shape="7576.81,1899.57 7558.40,1895.58 7536.47,1891.03">
        <lane id="118.0_0" index="0" speed="13.89" length="41.07" width="3.66" shape="7576.43,1901.36 7558.02,1897.37 7536.25,1892.86"/>
    </edge>
    <edge id="119.0" from="node_119_start" to="node_119_end" priority="-1" type="town" shape="5323.21,1370.03 5305.05,1365.20 5284.96,1360.05">
        <lane id="119.0_0" index="0" disallow="all" speed="13.89" length="35.38" width="3.66" shape="5317.04,1377.86 5302.74,1374.06 5282.84,1368.96" type="shoulder"/>
        <lane id="119.0_1" index="1" speed="13.89" length="35.38" width="3.66" shape="5317.98,1374.32 5303.67,1370.52 5283.75,1365.41"/>
        <lane id="119.0_2" index="2" speed="13.89" length="35.38" width="3.66" shape="5318.92,1370.79 5304.59,1366.97 5284.66,1361.86"/>
    </edge>
    <edge id="120.0" from="node_120_start" to="node_120_end" priority="-1" type="town" shape="5885.61,1506.66 5881.62,1505.63 5878.00,1504.70">
        <lane id="120.0_0" index="0" disallow="all" speed="13.89" length="7.53" width="3.66" shape="5881.34,1522.57 5877.51,1521.58 5874.05,1520.69" type="shoulder"/>
        <lane id="120.0_1" index="1" speed="13.89" length="7.53" width="3.66" shape="5882.25,1519.03 5878.43,1518.04 5874.96,1517.15"/>
        <lane id="120.0_2" index="2" speed="13.89" length="7.53" width="3.66" shape="5883.17,1515.48 5879.34,1514.49 5875.87,1513.60"/>
        <lane id="120.0_3" index="3" speed="13.89" length="7.53" width="3.66" shape="5884.08,1511.94 5880.25,1510.95 5876.78,1510.06"/>
        <lane id="120.0_4" index="4" disallow="all" speed="13.89" length="7.53" width="3.66" shape="5885.00,1508.40 5881.17,1507.41 5877.69,1506.51" type="shoulder"/>
    </edge>
    <edge id="121.0" from="node_120_end" to="node_121_end" priority="-1" type="town" shape="5878.00,1504.70 5856.23,1499.11 5834.56,1493.45 5812.76,1487.92 5787.76,1481.43 5763.99,1475.34 5739.81,1469.13 5696.71,1458.09 5671.77,1451.63 5648.46,1445.75 5636.47,1442.65 5622.45,1439.05 5607.86,1435.29 5604.28,1434.42">
        <lane id="121.0_0" index="0" disallow="all" speed="13.89" length="282.33" width="3.66" shape="5873.76,1520.62 5852.10,1515.06 5830.46,1509.40 5808.67,1503.88 5783.65,1497.38 5759.90,1491.30 5735.72,1485.09 5692.61,1474.04 5667.69,1467.59 5644.40,1461.72 5632.36,1458.60 5618.35,1455.00 5603.80,1451.25 5600.39,1450.43" type="shoulder"/>
        <lane id="121.0_1" index="1" speed="13.89" length="282.33" width="3.66" shape="5874.67,1517.07 5853.02,1511.51 5831.37,1505.86 5809.58,1500.33 5784.56,1493.84 5760.81,1487.75 5736.63,1481.54 5693.52,1470.50 5668.60,1464.04 5645.30,1458.17 5633.28,1455.06 5619.26,1451.46 5604.70,1447.71 5601.26,1446.87"/>
        <lane id="121.0_2" index="2" speed="13.89" length="282.33" width="3.66" shape="5875.58,1513.53 5853.94,1507.97 5832.28,1502.32 5810.49,1496.79 5785.48,1490.29 5761.72,1484.21 5737.54,1478.00 5694.43,1466.96 5669.51,1460.50 5646.21,1454.62 5634.19,1451.51 5620.17,1447.92 5605.60,1444.16 5602.12,1443.32"/>
        <lane id="121.0_3" index="3" speed="13.89" length="282.33" width="3.66" shape="5876.49,1509.98 5854.86,1504.43 5833.19,1498.77 5811.40,1493.24 5786.39,1486.75 5762.63,1480.66 5738.45,1474.45 5695.34,1463.41 5670.41,1456.95 5647.11,1451.07 5635.10,1447.97 5621.08,1444.37 5606.51,1440.61 5602.99,1439.76"/>
        <lane id="121.0_4" index="4" disallow="all" speed="13.89" length="282.33" width="3.66" shape="5877.40,1506.44 5855.77,1500.89 5834.11,1495.23 5812.31,1489.70 5787.31,1483.21 5763.54,1477.12 5739.36,1470.91 5696.26,1459.87 5671.32,1453.41 5648.01,1447.53 5636.02,1444.43 5622.00,1440.83 5607.41,1437.07 5603.85,1436.20" type="shoulder"/>
    </edge>
    <edge id="122.0" from="node_122_start" to="node_120_start" priority="-1" type="town" shape="7117.80,1799.97 7031.24,1784.41 7009.72,1780.47 6989.21,1776.50 6971.85,1773.10 6947.57,1768.26 6891.26,1756.78 6825.22,1742.68 6807.38,1738.69 6782.24,1733.07 6764.37,1729.24 6704.22,1715.33 6662.32,1705.34 6607.79,1691.96 6593.86,1688.48 6576.97,1684.20 6560.08,1679.89 6545.79,1676.23 6524.76,1670.82 6500.90,1664.71 6484.01,1660.34 6468.14,1656.32 6446.75,1650.81 6404.75,1640.02 6387.85,1635.49 6372.05,1631.59 6359.05,1628.22 6338.64,1623.03 6316.51,1617.27 6294.86,1611.82 6234.27,1596.28 6215.02,1591.23 6198.42,1586.99 6177.67,1581.75 6159.49,1577.10 6140.50,1572.25 6118.94,1566.74 6100.45,1561.92 6082.98,1557.49 6068.26,1553.69 6054.11,1550.07 6038.26,1545.98 6023.78,1542.26 6010.55,1538.85 5982.44,1531.68 5930.31,1518.28 5904.37,1511.56 5885.61,1506.66">
        <lane id="122.0_0" index="0" disallow="all" speed="13.89" length="1263.56" width="3.66" shape="7110.95,1815.48 7028.32,1800.62 7006.67,1796.66 6986.07,1792.67 6968.66,1789.26 6944.32,1784.41 6887.90,1772.91 6821.71,1758.77 6803.79,1754.77 6778.72,1749.16 6760.79,1745.32 6700.46,1731.37 6658.45,1721.35 6603.85,1707.96 6589.84,1704.46 6572.91,1700.17 6556.00,1695.85 6541.70,1692.19 6520.67,1686.78 6496.80,1680.66 6479.93,1676.30 6464.06,1672.28 6442.65,1666.77 6400.57,1655.95 6383.75,1651.44 6368.01,1647.56 6354.96,1644.18 6334.54,1638.98 6312.43,1633.23 6290.81,1627.79 6230.14,1612.23 6210.89,1607.18 6194.37,1602.96 6173.62,1597.72 6155.41,1593.06 6136.43,1588.21 6114.83,1582.69 6096.35,1577.88 6078.90,1573.45 6064.16,1569.65 6050.01,1566.03 6034.16,1561.93 6019.68,1558.21 6006.47,1554.81 5978.36,1547.64 5926.20,1534.23 5900.23,1527.50 5881.61,1522.64" type="shoulder"/>
        <lane id="122.0_1" index="1" speed="13.89" length="1263.56" width="3.66" shape="7111.60,1811.87 7028.97,1797.02 7007.35,1793.06 6986.77,1789.08 6969.37,1785.67 6945.04,1780.82 6888.65,1769.32 6822.49,1755.20 6804.59,1751.20 6779.50,1745.59 6761.59,1741.75 6701.29,1727.80 6659.31,1717.80 6604.73,1704.40 6590.73,1700.91 6573.82,1696.62 6556.91,1692.30 6542.61,1688.64 6521.58,1683.23 6497.71,1677.12 6480.83,1672.75 6464.97,1668.73 6443.56,1663.22 6401.50,1652.41 6384.66,1647.90 6368.91,1644.01 6355.87,1640.63 6335.45,1635.44 6313.34,1629.68 6291.71,1624.24 6231.06,1608.68 6211.81,1603.64 6195.27,1599.41 6174.52,1594.17 6156.32,1589.52 6137.33,1584.67 6115.74,1579.15 6097.26,1574.33 6079.81,1569.90 6065.07,1566.10 6050.92,1562.48 6035.07,1558.39 6020.59,1554.67 6007.38,1551.26 5979.26,1544.09 5927.12,1530.69 5901.15,1523.96 5882.53,1519.10"/>
        <lane id="122.0_2" index="2" speed="13.89" length="1263.56" width="3.66" shape="7112.25,1808.27 7029.62,1793.42 7008.03,1789.47 6987.46,1785.49 6970.08,1782.08 6945.76,1777.23 6889.39,1765.74 6823.27,1751.62 6805.39,1747.62 6780.29,1742.01 6762.38,1738.18 6702.13,1724.24 6660.17,1714.24 6605.60,1700.85 6591.63,1697.36 6574.72,1693.07 6557.82,1688.76 6543.52,1685.10 6522.49,1679.69 6498.62,1673.58 6481.74,1669.21 6465.88,1665.19 6444.47,1659.68 6402.43,1648.87 6385.57,1644.36 6369.81,1640.46 6356.78,1637.09 6336.36,1631.90 6314.24,1626.14 6292.61,1620.69 6231.97,1605.14 6212.73,1600.09 6196.17,1595.86 6175.42,1590.62 6157.23,1585.97 6138.24,1581.12 6116.66,1575.60 6098.17,1570.79 6080.72,1566.36 6065.98,1562.56 6051.83,1558.94 6035.98,1554.84 6021.50,1551.13 6008.28,1547.72 5980.17,1540.55 5928.03,1527.14 5902.07,1520.42 5883.46,1515.56"/>
        <lane id="122.0_3" index="3" speed="13.89" length="1263.56" width="3.66" shape="7112.89,1804.67 7030.27,1789.82 7008.71,1785.87 6988.16,1781.89 6970.79,1778.49 6946.49,1773.65 6890.14,1762.16 6824.05,1748.05 6806.18,1744.05 6781.07,1738.44 6763.18,1734.60 6702.97,1720.68 6661.03,1710.68 6606.48,1697.29 6592.52,1693.81 6575.62,1689.52 6558.72,1685.21 6544.43,1681.55 6523.40,1676.14 6499.53,1670.03 6482.65,1665.66 6466.78,1661.64 6445.39,1656.13 6403.36,1645.33 6386.48,1640.81 6370.71,1636.92 6357.69,1633.54 6337.27,1628.35 6315.15,1622.59 6293.51,1617.14 6232.89,1601.60 6213.65,1596.55 6197.07,1592.32 6176.32,1587.08 6158.13,1582.42 6139.14,1577.57 6117.57,1572.06 6099.09,1567.24 6081.62,1562.81 6066.90,1559.01 6052.75,1555.39 6036.89,1551.30 6022.41,1547.58 6009.19,1544.17 5981.08,1537.00 5928.94,1523.60 5902.99,1516.88 5884.38,1512.02"/>
        <lane id="122.0_4" index="4" disallow="all" speed="13.89" length="1263.56" width="3.66" shape="7113.54,1801.07 7030.92,1786.21 7009.38,1782.27 6988.86,1778.30 6971.50,1774.90 6947.21,1770.06 6890.89,1758.58 6824.83,1744.47 6806.98,1740.48 6781.85,1734.86 6763.97,1731.03 6703.80,1717.12 6661.89,1707.12 6607.35,1693.74 6593.42,1690.26 6576.52,1685.98 6559.63,1681.67 6545.34,1678.01 6524.31,1672.60 6500.45,1666.49 6483.56,1662.12 6467.69,1658.10 6446.30,1652.59 6404.29,1641.79 6387.40,1637.27 6371.60,1633.37 6358.60,1630.00 6338.19,1624.81 6316.06,1619.05 6294.41,1613.60 6233.81,1598.06 6214.56,1593.01 6197.97,1588.77 6177.22,1583.53 6159.04,1578.88 6140.05,1574.03 6118.49,1568.52 6100.00,1563.70 6082.53,1559.27 6067.81,1555.47 6053.66,1551.85 6037.81,1547.76 6023.33,1544.04 6010.10,1540.63 5981.99,1533.46 5929.86,1520.06 5903.91,1513.34 5885.31,1508.48" type="shoulder"/>
    </edge>
    <edge id="123.0" from="node_119_end" to="node_123_end" priority="-1" type="town" shape="5284.96,1360.05 5268.81,1355.94 5248.77,1350.78 5226.66,1345.07 5207.08,1340.06 5185.95,1334.61 5163.21,1328.80 5139.01,1322.57 5120.96,1317.93 5103.85,1313.59 5080.99,1307.66 5051.82,1300.22 5022.29,1292.55 4977.28,1281.08 4965.09,1277.98 4959.05,1276.41 4953.06,1274.77 4944.39,1272.24 4928.83,1267.60 4917.61,1264.31 4906.95,1261.15">
        <lane id="123.0_0" index="0" disallow="all" speed="13.89" length="390.69" width="3.66" shape="5282.56,1368.88 5266.54,1364.81 5246.49,1359.64 5224.38,1353.94 5204.81,1348.93 5183.68,1343.48 5160.94,1337.67 5136.73,1331.44 5118.70,1326.80 5101.58,1322.46 5078.71,1316.53 5049.54,1309.09 5020.01,1301.42 4975.02,1289.95 4962.82,1286.85 4956.69,1285.25 4950.57,1283.58 4941.80,1281.02 4926.23,1276.38 4915.03,1273.09 4904.48,1269.96" type="shoulder"/>
        <lane id="123.0_1" index="1" speed="13.89" length="390.69" width="3.66" shape="5283.46,1365.34 5267.45,1361.26 5247.40,1356.10 5225.30,1350.39 5205.72,1345.38 5184.59,1339.93 5161.85,1334.12 5137.64,1327.89 5119.60,1323.25 5102.49,1318.91 5079.62,1312.98 5050.45,1305.54 5020.92,1297.87 4975.93,1286.40 4963.73,1283.30 4957.64,1281.72 4951.57,1280.06 4942.83,1277.51 4927.27,1272.87 4916.06,1269.58 4905.52,1266.45"/>