<?xml version='1.0' encoding='utf-8'?>
<edges>
    <edge id="100.0" from="node_100_start" to="junction_6" numLanes="5" speed="13.89" type="town" shape="763206.28,3294354.40 763202.27,3294353.76 763202.27,3294353.76 763188.33,3294351.52 763188.33,3294351.52 763174.22,3294349.26 763174.22,3294349.26 763160.59,3294347.10 763160.59,3294347.10 763147.01,3294344.91 763147.01,3294344.91 763136.57,3294343.23 763136.57,3294343.23 763121.33,3294340.78 763121.33,3294340.78 763110.74,3294339.07 763110.74,3294339.07 763102.76,3294337.80 763102.76,3294337.80 763091.80,3294336.03 763091.80,3294336.03 763080.87,3294334.28 763080.87,3294334.28 763069.54,3294332.49 763069.54,3294332.49 763061.14,3294331.12 763061.14,3294331.12 763051.74,3294329.63">
        <lane index="0" width="3.66" type="shoulder" disallow="all" />
        <lane index="1" width="3.66" />
        <lane index="2" width="3.66" />
        <lane index="3" width="3.66" />
        <lane index="4" width="3.66" type="shoulder" disallow="all" />
    </edge>
    <edge id="103.0" from="junction_6" to="node_103_end" numLanes="6" speed="13.89" type="town" shape="762989.24,3294319.61 762986.70,3294319.20 762986.70,3294319.20 762976.72,3294317.60">
        <lane index="0" width="3.66" />
        <lane index="1" width="3.66" type="shoulder" disallow="all" />
        <lane index="2" width="3.66" />
        <lane index="3" width="3.66" />
        <lane index="4" width="3.66" />
        <lane index="5" width="3.66" type="shoulder" disallow="all" />
    </edge>
    <edge id="111.0" from="node_103_end" to="node_111_end" numLanes="4" speed="13.89" type="town" shape="762976.72,3294317.60 762975.53,3294317.41 762975.53,3294317.41 762965.41,3294315.79 762965.41,3294315.79 762953.48,3294313.89 762953.48,3294313.89 762942.24,3294312.09 762942.24,3294312.09 762930.74,3294310.26 762930.74,3294310.26 762920.01,3294308.53 762920.01,3294308.53 762909.06,3294306.77">
        <lane index="0" width="3.66" />
        <lane index="1" width="3.66" />
        <lane index="2" width="3.66" />
        <lane index="3" width="3.66" type="shoulder" disallow="all" />
    </edge>
    <edge id="116.0" from="node_116_start" to="junction_6" numLanes="1" speed="13.89" type="town" shape="763203.71,3294377.33 763194.91,3294375.51 763194.91,3294375.51 763175.02,3294371.65 763175.02,3294371.65 763151.30,3294367.24 763151.30,3294367.24 763136.30,3294364.58 763136.30,3294364.58 763117.69,3294361.39 763117.69,3294361.39 763095.73,3294357.66 763095.73,3294357.66 763074.19,3294353.99 763074.19,3294353.99 763059.04,3294351.40 763059.04,3294351.40 763049.19,3294349.75">
        <lane index="0" width="3.66" />
    </edge>
    <edge id="118.0" from="node_118_start" to="node_116_start" numLanes="1" speed="13.89" type="town" shape="763244.05,3294385.87 763225.64,3294381.88 763225.64,3294381.88 763203.71,3294377.33">
        <lane index="0" width="3.66" />
    </edge>
    <edge id="119.0" from="node_119_start" to="node_119_end" numLanes="3" speed="13.89" type="town" shape="760990.45,3293856.33 760972.29,3293851.50 760972.29,3293851.50 760952.20,3293846.35">
        <lane index="0" width="3.66" type="shoulder" disallow="all" />
        <lane index="1" width="3.66" />
        <lane index="2" width="3.66" />
    </edge>
    <edge id="120.0" from="node_120_start" to="node_120_end" numLanes="5" speed="13.89" type="town" shape="761552.85,3293992.96 761548.86,3293991.93 761548.86,3293991.93 761545.24,3293991.00">
        <lane index="0" width="3.66" type="shoulder" disallow="all" />
        <lane index="1" width="3.66" />
        <lane index="2" width="3.66" />
        <lane index="3" width="3.66" />
        <lane index="4" width="3.66" type="shoulder" disallow="all" />
    </edge>
    <edge id="121.0" from="node_120_end" to="node_121_end" numLanes="5" speed="13.89" type="town" shape="761545.24,3293991.00 761523.47,3293985.41 761523.47,3293985.41 761501.80,3293979.75 761501.80,3293979.75 761480.00,3293974.22 761480.00,3293974.22 761455.00,3293967.73 761455.00,3293967.73 761431.23,3293961.64 761431.23,3293961.64 761407.05,3293955.43 761407.05,3293955.43 761363.95,3293944.39 761363.95,3293944.39 761339.01,3293937.93 761339.01,3293937.93 761315.70,3293932.05 761315.70,3293932.05 761303.71,3293928.95 761303.71,3293928.95 761289.69,3293925.35 761289.69,3293925.35 761275.10,3293921.59 761275.10,3293921.59 761271.52,3293920.72">
        <lane index="0" width="3.66" type="shoulder" disallow="all" />
        <lane index="1" width="3.66" />
        <lane index="2" width="3.66" />
        <lane index="3" width="3.66" />
        <lane index="4" width="3.66" type="shoulder" disallow="all" />
    </edge>
    <edge id="122.0" from="node_122_start" to="node_120_start" numLanes="5" speed="13.89" type="town" shape="762785.04,3294286.27 762698.48,3294270.71 762698.48,3294270.71 762676.96,3294266.77 762676.96,3294266.77 762656.45,3294262.80 762656.45,3294262.80 762639.09,3294259.40 762639.09,3294259.40 762614.81,3294254.56 762614.81,3294254.56 762558.50,3294243.08 762558.50,3294243.08 762492.46,3294228.98 762492.46,3294228.98 762474.62,3294224.99 762474.62,3294224.99 762449.48,3294219.37 762449.48,3294219.37 762431.61,3294215.54 762431.61,3294215.54 762371.46,3294201.63 762371.46,3294201.63 762329.56,3294191.64 762329.56,3294191.64 762275.03,3294178.26 762275.03,3294178.26 762261.10,3294174.78 762261.10,3294174.78 762244.21,3294170.50 762244.21,3294170.50 762227.32,3294166.19 762227.32,3294166.19 762213.03,3294162.53 762213.03,3294162.53 762192.00,3294157.12 762192.00,3294157.12 762168.14,3294151.01 762168.14,3294151.01 762151.25,3294146.64 762151.25,3294146.64 762135.38,3294142.62 762135.38,3294142.62 762113.99,3294137.11 762113.99,3294137.11 762071.99,3294126.32 762071.99,3294126.32 762055.09,3294121.79 762055.09,3294121.79 762039.29,3294117.89 762039.29,3294117.89 762026.29,3294114.52 762026.29,3294114.52 762005.88,3294109.33 762005.88,3294109.33 761983.75,3294103.57 761983.75,3294103.57 761962.10,3294098.12 761962.10,3294098.12 761901.51,3294082.58 761901.51,3294082.58 761882.26,3294077.53 761882.26,3294077.53 761865.66,3294073.29 761865.66,3294073.29 761844.91,3294068.05 761844.91,3294068.05 761826.73,3294063.40 761826.73,3294063.40 761807.74,3294058.55 761807.74,3294058.55 761786.18,3294053.04 761786.18,3294053.04 761767.69,3294048.22 761767.69,3294048.22 761750.22,3294043.79 761750.22,3294043.79 761735.50,3294039.99 761735.50,3294039.99 761721.35,3294036.37 761721.35,3294036.37 761705.50,3294032.28 761705.50,3294032.28 761691.02,3294028.56 761691.02,3294028.56 761677.79,3294025.15 761677.79,3294025.15 761649.68,3294017.98 761649.68,3294017.98 761597.55,3294004.58 761597.55,3294004.58 761571.61,3293997.86 761571.61,3293997.86 761552.85,3293992.96">
        <lane index="0" width="3.66" type="shoulder" disallow="all" />
        <lane index="1" width="3.66" />
        <lane index="2" width="3.66" />
        <lane index="3" width="3.66" />
        <lane index="4" width="3.66" type="shoulder" disallow="all" />
    </edge>
    <edge id="123.0" from="node_119_end" to="node_123_end" numLanes="3" speed="13.89" type="town" shape="760952.20,3293846.35 760936.05,3293842.24 760936.05,3293842.24 760916.01,3293837.08 760916.01,3293837.08 760893.90,3293831.37 760893.90,3293831.37 760874.32,3293826.36 760874.32,3293826.36 760853.19,3293820.91 760853.19,3293820.91 760830.45,3293815.10 760830.45,3293815.10 760806.25,3293808.87 760806.25,3293808.87 760788.20,3293804.23 760788.20,3293804.23 760771.09,3293799.89 760771.09,3293799.89 760748.23,3293793.96 760748.23,3293793.96 760719.06,3293786.52 760719.06,3293786.52 760689.53,3293778.85 760689.53,3293778.85 760644.52,3293767.38 760644.52,3293767.38 760632.33,3293764.28 760632.33,3293764.28 760626.29,3293762.71 760626.29,3293762.71 760620.30,3293761.07 760620.30,3293761.07 760611.63,3293758.54 760611.63,3293758.54 760596.07,3293753.90 760596.07,3293753.90 760584.85,3293750.61 760584.85,3293750.61 760574.19,3293747.45">
        <lane index="0" width="3.66" type="shoulder" disallow="all" />
        <lane index="1" width="3.66" />
        <lane index="2" width="3.66" />
    </edge>
    <edge id="124.0" from="node_121_end" to="node_124_end" numLanes="5" speed="13.89" type="town" shape="761271.52,3293920.72 761255.19,3293916.50 761255.19,3293916.50 761236.75,3293911.73">
        <lane index="0" width="3.66" type="shoulder" disallow="all" />
        <lane index="1" width="3.66" />
        <lane index="2" width="3.66" />
        <lane index="3" width="3.66" />
        <lane index="4" width="3.66" type="shoulder" disallow="all" />
    </edge>
    <edge id="126.0" from="node_126_start" to="node_126_end" numLanes="3" speed="13.89" type="town" shape="758484.61,3293211.61 758471.67,3293208.16 758471.67,3293208.16 758456.00,3293204.09 758456.00,3293204.09 758437.25,3293199.26 758437.25,3293199.26 758416.82,3293193.96 758416.82,3293193.96 758401.66,3293190.06 758401.66,3293190.06 758379.75,3293184.41 758379.75,3293184.41 758363.70,3293180.37 758363.70,3293180.37 758348.71,3293176.46 758348.71,3293176.46 758332.22,3293172.27 758332.22,3293172.27 758318.52,3293168.72 758318.52,3293168.72 758301.47,3293164.38 758301.47,3293164.38 758282.70,3293159.57 758282.70,3293159.57 758263.00,3293154.53 758263.00,3293154.53 758247.68,3293150.58 758247.68,3293150.58 758238.72,3293148.26 758238.72,3293148.26 758226.73,3293145.23">
        <lane index="0" width="3.66" type="shoulder" disallow="all" />
        <lane index="1" width="3.66" />
        <lane index="2" width="3.66" />
    </edge>
    <edge id="128.0" from="node_128_start" to="node_128_end" numLanes="2" speed="13.89" type="town" shape="757259.79,3292897.17 757240.10,3292892.10 757240.10,3292892.10 757213.34,3292885.21 757213.34,3292885.21 757201.58,3292882.19">
        <lane index="0" width="3.66" />
        <lane index="1" width="3.66" />
    </edge>
    <edge id="129.0" from="junction_9" to="node_129_end" numLanes="3" speed="13.89" type="town" shape="757743.96,3293021.37 757737.38,3293019.68">
        <lane index="0" width="3.66" />
        <lane index="1" width="3.66" />
        <lane index="2" width="3.66" />
    </edge>
    <edge id="131.0" from="junction_121" to="node_131_end" numLanes="1" speed="13.89" type="town" shape="758653.08,3293262.51 758641.60,3293260.92 758641.60,3293260.92 758632.31,3293259.51 758632.31,3293259.51 758618.25,3293257.15 758618.25,3293257.15 758604.23,3293254.65 758604.23,3293254.65 758603.36,3293254.49 758603.36,3293254.49 758568.05,3293247.52 758568.05,3293247.52 758546.07,3293242.73 758546.07,3293242.73 758512.24,3293236.04 758512.24,3293236.04 758496.49,3293233.69 758496.49,3293233.69 758475.47,3293230.52">
        <lane index="0" width="3.66" />
    </edge>
    <edge id="133.0" from="node_133_start" to="junction_9" numLanes="1" speed="13.89" type="town" shape="757855.89,3293072.24 757850.93,3293067.12 757850.93,3293067.12 757847.93,3293064.81 757847.93,3293064.81 757843.52,3293062.41 757843.52,3293062.41 757830.93,3293057.60 757830.93,3293057.60 757816.84,3293052.57 757816.84,3293052.57 757803.00,3293047.82 757803.00,3293047.82 757791.67,3293044.16">
        <lane index="0" width="3.66" />
    </edge>
    <edge id="236.0" from="node_236_start" to="node_128_start" numLanes="2" speed="13.89" type="town" shape="757554.12,3292972.59 757553.47,3292972.42 757553.47,3292972.42 757538.98,3292968.75 757538.98,3292968.75 757512.11,3292961.80 757512.11,3292961.80 757475.01,3292952.25 757475.01,3292952.25 757455.80,3292947.27 757455.80,3292947.27 757422.87,3292938.69 757422.87,3292938.69 757392.65,3292931.09 757392.65,3292931.09 757379.06,3292927.59 757379.06,3292927.59 757367.53,3292924.65 757367.53,3292924.65 757353.27,3292920.99 757353.27,3292920.99 757335.36,3292916.40 757335.36,3292916.40 757320.08,3292912.49 757320.08,3292912.49 757304.36,3292908.44 757304.36,3292908.44 757289.17,3292904.50 757289.17,3292904.50 757276.49,3292901.50 757276.49,3292901.50 757259.79,3292897.17">
        <lane index="0" width="3.66" />
        <lane index="1" width="3.66" />
    </edge>
    <edge id="237.0" from="node_129_end" to="node_236_start" numLanes="2" speed="13.89" type="town" shape="757737.38,3293019.68 757727.12,3293017.04 757727.12,3293017.04 757706.02,3293011.61 757706.02,3293011.61 757677.70,3293004.33 757677.70,3293004.33 757645.76,3292996.12 757645.76,3292996.12 757613.81,3292987.91 757613.81,3292987.91 757585.49,3292980.63 757585.49,3292980.63 757564.38,3292975.22 757564.38,3292975.22 757554.12,3292972.59">
        <lane index="0" width="3.66" />
        <lane index="1" width="3.66" />
    </edge>
    <edge id="238.0" from="node_129_end" to="node_236_start" numLanes="1" speed="13.89" type="town" shape="757735.34,3293026.50 757725.14,3293023.72 757725.14,3293023.72 757704.19,3293017.94 757704.19,3293017.94 757676.07,3293010.15 757676.07,3293010.15 757644.36,3293001.37 757644.36,3293001.37 757612.65,3292992.58 757612.65,3292992.58 757584.53,3292984.80 757584.53,3292984.80 757563.57,3292979.03 757563.57,3292979.03 757553.37,3292976.27">
        <lane index="0" width="3.66" />
    </edge>
    <edge id="240.0" from="node_90_start" to="node_122_start" numLanes="1" speed="13.89" type="town" shape="762888.32,3294318.49 762870.20,3294314.62 762870.20,3294314.62 762848.90,3294310.14 762848.90,3294310.14 762822.23,3294304.73 762822.23,3294304.73 762797.08,3294300.08 762797.08,3294300.08 762783.33,3294297.40">
        <lane index="0" width="3.66" />
    </edge>
    <edge id="244.0" from="node_124_end" to="node_119_start" numLanes="3" speed="13.89" type="town" shape="761235.31,3293918.98 761210.49,3293912.60 761210.49,3293912.60 761186.04,3293906.34 761186.04,3293906.34 761161.59,3293900.09 761161.59,3293900.09 761137.14,3293893.84 761137.14,3293893.84 761112.69,3293887.59 761112.69,3293887.59 761088.24,3293881.33 761088.24,3293881.33 761063.79,3293875.08 761063.79,3293875.08 761039.34,3293868.83 761039.34,3293868.83 761014.89,3293862.58 761014.89,3293862.58 760990.45,3293856.33">
        <lane index="0" width="3.66" type="shoulder" disallow="all" />
        <lane index="1" width="3.66" />
        <lane index="2" width="3.66" />
    </edge>
    <edge id="245.0" from="node_124_end" to="node_119_start" numLanes="1" speed="13.89" type="town" shape="761236.37,3293915.48 761211.58,3293909.52 761211.58,3293909.52 761187.00,3293903.62 761187.00,3293903.62 761162.42,3293897.73 761162.42,3293897.73 761137.84,3293891.83 761137.84,3293891.83 761113.26,3293885.93 761113.26,3293885.93 761088.68,3293880.02 761088.68,3293880.02 761064.10,3293874.10 761064.10,3293874.10 761039.53,3293868.18 761039.53,3293868.18 761014.96,3293862.25 761014.96,3293862.25 760990.45,3293856.33">
        <lane index="0" width="3.66" />
    </edge>
    <edge id="806.0" from="node_806_start" to="junction_121" numLanes="2" speed="13.89" type="town" shape="758855.67,3293304.20 758836.69,3293299.79 758836.69,3293299.79 758805.30,3293292.42 758805.30,3293292.42 758779.31,3293286.45 758779.31,3293286.45 758761.64,3293282.27">
        <lane index="0" width="3.66" />
        <lane index="1" width="3.66" />
    </edge>
    <edge id="821.0" from="node_123_end" to="node_821_end" numLanes="3" speed="13.89" type="town" shape="760574.19,3293747.45 760560.43,3293743.22 760560.43,3293743.22 760546.99,3293739.42 760546.99,3293739.42 760534.43,3293735.74 760534.43,3293735.74 760521.71,3293732.21 760521.71,3293732.21 760507.21,3293728.25 760507.21,3293728.25 760491.82,3293724.39 760491.82,3293724.39 760481.38,3293721.63 760481.38,3293721.63 760463.39,3293717.01 760463.39,3293717.01 760451.47,3293713.93 760451.47,3293713.93 760436.83,3293710.21 760436.83,3293710.21 760415.30,3293704.66 760415.30,3293704.66 760393.37,3293699.02 760393.37,3293699.02 760380.55,3293695.76 760380.55,3293695.76 760363.21,3293691.32 760363.21,3293691.32 760336.22,3293684.33 760336.22,3293684.33 760307.71,3293677.03 760307.71,3293677.03 760288.18,3293672.03 760288.18,3293672.03 760270.73,3293667.55 760270.73,3293667.55 760258.03,3293664.28 760258.03,3293664.28 760244.49,3293660.77 760244.49,3293660.77 760230.66,3293657.26 760230.66,3293657.26 760220.28,3293654.59 760220.28,3293654.59 760210.36,3293652.05 760210.36,3293652.05 760198.38,3293648.94 760198.38,3293648.94 760186.44,3293645.91 760186.44,3293645.91 760174.03,3293642.71 760174.03,3293642.71 760162.78,3293639.76 760162.78,3293639.76 760150.63,3293636.72 760150.63,3293636.72 760138.80,3293633.68 760138.80,3293633.68 760124.77,3293630.04 760124.77,3293630.04 760112.32,3293626.81 760112.32,3293626.81 760098.06,3293623.19 760098.06,3293623.19 760075.28,3293617.30 760075.28,3293617.30 760058.16,3293612.88 760058.16,3293612.88 760042.44,3293608.88 760042.44,3293608.88 760022.22,3293603.67 760022.22,3293603.67 760004.37,3293599.17 760004.37,3293599.17 759994.18,3293596.50 759994.18,3293596.50 759966.76,3293589.39 759966.76,3293589.39 759935.82,3293581.49 759935.82,3293581.49 759899.46,3293572.17 759899.46,3293572.17 759857.23,3293561.28 759857.23,3293561.28 759808.17,3293548.65 759808.17,3293548.65 759770.83,3293539.07 759770.83,3293539.07 759743.50,3293532.11 759743.50,3293532.11 759703.29,3293521.78 759703.29,3293521.78 759667.78,3293512.59 759667.78,3293512.59 759622.72,3293501.00 759622.72,3293501.00 759581.66,3293490.53 759581.66,3293490.53 759547.08,3293481.66 759547.08,3293481.66 759508.31,3293471.71 759508.31,3293471.71 759456.68,3293458.42 759456.68,3293458.42 759445.94,3293455.66">
        <lane index="0" width="3.66" type="shoulder" disallow="all" />
        <lane index="1" width="3.66" />
        <lane index="2" width="3.66" />
    </edge>
    <edge id="822.0" from="node_821_end" to="node_822_end" numLanes="3" speed="13.89" type="town" shape="759445.94,3293455.66 759405.94,3293445.37 759405.94,3293445.37 759370.18,3293436.26 759370.18,3293436.26 759333.76,3293426.86 759333.76,3293426.86 759305.57,3293419.56 759305.57,3293419.56 759277.08,3293412.30 759277.08,3293412.30 759233.43,3293401.13 759233.43,3293401.13 759205.19,3293393.78 759205.19,3293393.78 759162.94,3293382.95 759162.94,3293382.95 759135.08,3293375.81 759135.08,3293375.81 759113.72,3293370.34 759113.72,3293370.34 759090.65,3293364.39 759090.65,3293364.39 759063.65,3293357.45 759063.65,3293357.45 759032.23,3293349.38 759032.23,3293349.38 758992.66,3293339.20 758992.66,3293339.20 758967.33,3293332.69 758967.33,3293332.69 758929.48,3293322.97 758929.48,3293322.97 758907.04,3293317.24">
        <lane index="0" width="3.66" type="shoulder" disallow="all" />
        <lane index="1" width="3.66" />
        <lane index="2" width="3.66" />
    </edge>
    <edge id="823.0" from="node_822_end" to="node_806_start" numLanes="2" speed="13.89" type="town" shape="758907.04,3293317.24 758899.14,3293315.23 758899.14,3293315.23 758872.92,3293308.57 758872.92,3293308.57 758855.67,3293304.20">
        <lane index="0" width="3.66" />
        <lane index="1" width="3.66" />
    </edge>
    <edge id="824.0" from="junction_121" to="node_824_end" numLanes="2" speed="13.89" type="town" shape="758654.81,3293255.45 758637.75,3293250.96 758637.75,3293250.96 758612.90,3293244.56">
        <lane index="0" width="3.66" />
        <lane index="1" width="3.66" />
    </edge>
    <edge id="825.0" from="node_824_end" to="node_126_start" numLanes="3" speed="13.89" type="town" shape="758612.90,3293244.56 758606.66,3293242.95 758606.66,3293242.95 758576.33,3293235.14 758576.33,3293235.14 758554.74,3293229.64 758554.74,3293229.64 758535.97,3293224.82 758535.97,3293224.82 758517.40,3293220.05 758517.40,3293220.05 758508.75,3293217.87 758508.75,3293217.87 758498.49,3293215.25 758498.49,3293215.25 758484.61,3293211.61">
        <lane index="0" width="3.66" type="shoulder" disallow="all" />
        <lane index="1" width="3.66" />
        <lane index="2" width="3.66" />
    </edge>
    <edge id="826.0" from="node_126_end" to="node_826_end" numLanes="3" speed="13.89" type="town" shape="758226.73,3293145.23 758198.99,3293138.12 758198.99,3293138.12 758168.10,3293130.15 758168.10,3293130.15 758142.67,3293123.62 758142.67,3293123.62 758121.87,3293118.29 758121.87,3293118.29 758098.38,3293112.27 758098.38,3293112.27 758075.42,3293106.38 758075.42,3293106.38 758046.21,3293098.84 758046.21,3293098.84 758020.60,3293092.24 758020.60,3293092.24 757998.18,3293086.47 757998.18,3293086.47 757973.85,3293080.24 757973.85,3293080.24 757945.90,3293073.07 757945.90,3293073.07 757924.14,3293067.47 757924.14,3293067.47 757898.83,3293061.00 757898.83,3293061.00 757876.25,3293055.21 757876.25,3293055.21 757849.80,3293048.48 757849.80,3293048.48 757836.13,3293044.98">
        <lane index="0" width="3.66" type="shoulder" disallow="all" />
        <lane index="1" width="3.66" />
        <lane index="2" width="3.66" />
    </edge>
    <edge id="827.0" from="node_826_end" to="junction_9" numLanes="2" speed="13.89" type="town" shape="757836.13,3293044.98 757825.07,3293042.16 757825.07,3293042.16 757800.54,3293035.84 757800.54,3293035.84 757794.43,3293034.28">
        <lane index="0" width="3.66" />
        <lane index="1" width="3.66" />
    </edge>
    <edge id="86.0" from="node_86_start" to="node_100_start" numLanes="5" speed="13.89" type="town" shape="765041.30,3294648.47 765032.70,3294647.04 765032.70,3294647.04 765019.31,3294644.94 765019.31,3294644.94 765007.07,3294642.95 765007.07,3294642.95 764992.14,3294640.59 764992.14,3294640.59 764978.05,3294638.32 764978.05,3294638.32 764965.17,3294636.28 764965.17,3294636.28 764951.03,3294633.98 764951.03,3294633.98 764936.81,3294631.70 764936.81,3294631.70 764922.93,3294629.49 764922.93,3294629.49 764909.06,3294627.24 764909.06,3294627.24 764894.21,3294624.86 764894.21,3294624.86 764880.54,3294622.67 764880.54,3294622.67 764867.13,3294620.51 764867.13,3294620.51 764852.92,3294618.25 764852.92,3294618.25 764838.02,3294615.90 764838.02,3294615.90 764825.60,3294613.92 764825.60,3294613.92 764814.07,3294612.09 764814.07,3294612.09 764802.34,3294610.18 764802.34,3294610.18 764789.36,3294608.11 764789.36,3294608.11 764779.52,3294606.53 764779.52,3294606.53 764768.41,3294604.75 764768.41,3294604.75 764756.78,3294602.88 764756.78,3294602.88 764740.95,3294600.33 764740.95,3294600.33 764727.40,3294598.17 764727.40,3294598.17 764713.81,3294595.97 764713.81,3294595.97 764699.63,3294593.71 764699.63,3294593.71 764688.08,3294591.85 764688.08,3294591.85 764677.27,3294590.11 764677.27,3294590.11 764667.02,3294588.48 764667.02,3294588.48 764656.28,3294586.84 764656.28,3294586.84 764643.63,3294584.74 764643.63,3294584.74 764631.01,3294582.75 764631.01,3294582.75 764616.43,3294580.38 764616.43,3294580.38 764604.04,3294578.41 764604.04,3294578.41 764590.46,3294576.23 764590.46,3294576.23 764578.82,3294574.37 764578.82,3294574.37 764563.13,3294571.89 764563.13,3294571.89 764547.33,3294569.35 764547.33,3294569.35 764531.57,3294566.82 764531.57,3294566.82 764521.06,3294565.13 764521.06,3294565.13 764509.09,3294563.19 764509.09,3294563.19 764496.83,3294561.21 764496.83,3294561.21 764484.54,3294559.28 764484.54,3294559.28 764474.97,3294557.68 764474.97,3294557.68 764464.11,3294555.97 764464.11,3294555.97 764453.04,3294554.23 764453.04,3294554.23 764442.20,3294552.49 764442.20,3294552.49 764431.57,3294550.78 764431.57,3294550.78 764418.86,3294548.77 764418.86,3294548.77 764408.25,3294547.06 764408.25,3294547.06 764396.76,3294545.21 764396.76,3294545.21 764386.81,3294543.61 764386.81,3294543.61 764377.29,3294542.08 764377.29,3294542.08 764367.33,3294540.48 764367.33,3294540.48 764355.72,3294538.62 764355.72,3294538.62 764345.85,3294537.02 764345.85,3294537.02 764335.41,3294535.34 764335.41,3294535.34 764325.85,3294533.85 764325.85,3294533.85 764317.34,3294532.48 764317.34,3294532.48 764307.72,3294530.95 764307.72,3294530.95 764300.23,3294529.75 764300.23,3294529.75 764290.83,3294528.26 764290.83,3294528.26 764281.04,3294526.69 764281.04,3294526.69 764273.74,3294525.53 764273.74,3294525.53 764267.46,3294524.50 764267.46,3294524.50 764257.66,3294522.91 764257.66,3294522.91 764248.35,3294521.39 764248.35,3294521.39 764241.00,3294520.20 764241.00,3294520.20 764231.93,3294518.77 764231.93,3294518.77 764224.30,3294517.52 764224.30,3294517.52 764216.28,3294516.23 764216.28,3294516.23 764209.26,3294515.14 764209.26,3294515.14 764203.41,3294514.17 764203.41,3294514.17 764196.35,3294513.05 764196.35,3294513.05 764190.87,3294512.18 764190.87,3294512.18 764185.27,3294511.29 764185.27,3294511.29 764176.02,3294509.79 764176.02,3294509.79 764164.15,3294507.90 764164.15,3294507.90 764152.79,3294506.08 764152.79,3294506.08 764139.63,3294503.97 764139.63,3294503.97 764127.40,3294501.98 764127.40,3294501.98 764115.12,3294500.01 764115.12,3294500.01 764101.76,3294497.86 764101.76,3294497.86 764089.02,3294495.79 764089.02,3294495.79 764076.16,3294493.75 764076.16,3294493.75 764065.31,3294492.01 764065.31,3294492.01 764061.89,3294491.47 764061.89,3294491.47 764057.70,3294491.13 764057.70,3294491.13 764051.29,3294490.10 764051.29,3294490.10 764045.01,3294489.12 764045.01,3294489.12 764041.63,3294488.54 764041.63,3294488.54 764037.15,3294487.51 764037.15,3294487.51 764031.48,3294486.61 764031.48,3294486.61 764019.73,3294484.74 764019.73,3294484.74 764008.96,3294483.01 764008.96,3294483.01 763998.85,3294481.39 763998.85,3294481.39 763987.35,3294479.56 763987.35,3294479.56 763978.88,3294478.20 763978.88,3294478.20 763976.10,3294477.75 763976.10,3294477.75 763967.70,3294476.41 763967.70,3294476.41 763960.67,3294475.29 763960.67,3294475.29 763953.46,3294474.14 763953.46,3294474.14 763945.71,3294472.89 763945.71,3294472.89 763938.99,3294471.82 763938.99,3294471.82 763931.25,3294470.56 763931.25,3294470.56 763923.84,3294469.36 763923.84,3294469.36 763916.93,3294468.26 763916.93,3294468.26 763912.81,3294467.60 763912.81,3294467.60 763907.73,3294466.78 763907.73,3294466.78 763902.36,3294465.93 763902.36,3294465.93 763897.10,3294465.08 763897.10,3294465.08 763893.90,3294464.56 763893.90,3294464.56 763888.58,3294463.70 763888.58,3294463.70 763884.15,3294463.00 763884.15,3294463.00 763877.25,3294461.91 763877.25,3294461.91 763871.53,3294460.98 763871.53,3294460.98 763865.54,3294460.01 763865.54,3294460.01 763860.05,3294459.14 763860.05,3294459.14 763854.02,3294458.18 763854.02,3294458.18 763847.56,3294457.15 763847.56,3294457.15 763842.39,3294456.32 763842.39,3294456.32 763837.27,3294455.50 763837.27,3294455.50 763831.27,3294454.52 763831.27,3294454.52 763825.62,3294453.63 763825.62,3294453.63 763819.69,3294452.68 763819.69,3294452.68 763813.70,3294451.72 763813.70,3294451.72 763807.67,3294450.75 763807.67,3294450.75 763802.11,3294449.85 763802.11,3294449.85 763797.06,3294449.04 763797.06,3294449.04 763792.07,3294448.24 763792.07,3294448.24 763786.21,3294447.30 763786.21,3294447.30 763780.51,3294446.39 763780.51,3294446.39 763775.70,3294445.62 763775.70,3294445.62 763768.61,3294444.48 763768.61,3294444.48 763761.18,3294443.31 763761.18,3294443.31 763754.29,3294442.20 763754.29,3294442.20 763747.44,3294441.10 763747.44,3294441.10 763739.71,3294439.88 763739.71,3294439.88 763732.94,3294438.79 763732.94,3294438.79 763725.57,3294437.60 763725.57,3294437.60 763719.46,3294436.62 763719.46,3294436.62 763712.66,3294435.52 763712.66,3294435.52 763705.78,3294434.42 763705.78,3294434.42 763698.01,3294433.15 763698.01,3294433.15 763691.75,3294432.16 763691.75,3294432.16 763683.35,3294430.79 763683.35,3294430.79 763676.19,3294429.69 763676.19,3294429.69 763668.93,3294428.54 763668.93,3294428.54 763661.29,3294427.33 763661.29,3294427.33 763654.59,3294426.23 763654.59,3294426.23 763645.26,3294424.73 763645.26,3294424.73 763634.86,3294423.07 763634.86,3294423.07 763625.04,3294421.48 763625.04,3294421.48 763612.83,3294419.54 763612.83,3294419.54 763595.24,3294416.76 763595.24,3294416.76 763571.99,3294413.07 763571.99,3294413.07 763549.66,3294409.48 763549.66,3294409.48 763523.29,3294405.23 763523.29,3294405.23 763498.66,3294401.25 763498.66,3294401.25 763474.81,3294397.47 763474.81,3294397.47 763448.01,3294393.17 763448.01,3294393.17 763423.33,3294389.20 763423.33,3294389.20 763399.73,3294385.41 763399.73,3294385.41 763378.24,3294381.98 763378.24,3294381.98 763363.20,3294379.59 763363.20,3294379.59 763341.33,3294376.08 763341.33,3294376.08 763320.06,3294372.67 763320.06,3294372.67 763295.39,3294368.71 763295.39,3294368.71 763271.36,3294364.85 763271.36,3294364.85 763248.38,3294361.18 763248.38,3294361.18 763231.26,3294358.45 763231.26,3294358.45 763218.00,3294356.28 763218.00,3294356.28 763206.28,3294354.40">
        <lane index="0" width="3.66" type="shoulder" disallow="all" />
        <lane index="1" width="3.66" />
        <lane index="2" width="3.66" />
        <lane index="3" width="3.66" />
        <lane index="4" width="3.66" type="shoulder" disallow="all" />
    </edge>
    <edge id="90.0" from="node_90_start" to="node_122_start" numLanes="4" speed="13.89" type="town" shape="762890.28,3294303.77 762882.76,3294302.55 762882.76,3294302.55 762870.33,3294300.54 762870.33,3294300.54 762860.01,3294298.87 762860.01,3294298.87 762851.07,3294297.39 762851.07,3294297.39 762839.34,3294295.44 762839.34,3294295.44 762831.29,3294294.08 762831.29,3294294.08 762823.17,3294292.75 762823.17,3294292.75 762813.32,3294291.09 762813.32,3294291.09 762810.26,3294290.59 762810.26,3294290.59 762806.25,3294289.93 762806.25,3294289.93 762793.14,3294287.73 762793.14,3294287.73 762785.04,3294286.27">
        <lane index="0" width="3.66" />
        <lane index="1" width="3.66" />
        <lane index="2" width="3.66" />
        <lane index="3" width="3.66" type="shoulder" disallow="all" />
    </edge>
    <edge id="902.0" from="node_128_end" to="node_902_end" numLanes="2" speed="13.89" type="town" shape="757201.58,3292882.19 757010.07,3292833.14 757010.07,3292833.14 756872.11,3292797.85 756872.11,3292797.85 756856.30,3292793.79">
        <lane index="0" width="3.66" />
        <lane index="1" width="3.66" />
    </edge>