<?xml version='1.0' encoding='utf-8'?>
<connections>
    <connection from="806.0" to="131.0" fromLane="0" toLane="0" />
    <connection from="806.0" to="824.0" fromLane="0" toLane="0" />
    <connection from="806.0" to="824.0" fromLane="1" toLane="1" />
    <connection from="100.0" to="103.0" fromLane="1" toLane="2" />
    <connection from="100.0" to="103.0" fromLane="4" toLane="5" />
    <connection from="100.0" to="103.0" fromLane="0" toLane="1" />
    <connection from="100.0" to="103.0" fromLane="3" toLane="4" />
    <connection from="100.0" to="103.0" fromLane="2" toLane="3" />
    <connection from="827.0" to="129.0" fromLane="0" toLane="1" />
    <connection from="827.0" to="129.0" fromLane="1" toLane="2" />
</connections>