<?xml version='1.0' encoding='utf-8'?>
<edges>
    <edge id="659.0" from="node_659_start" to="node_659_end" numLanes="1" speed="13.89" type="town" shape="583172.61,3265700.83 583152.41,3265693.11 583152.41,3265693.11 583140.77,3265688.56 583140.77,3265688.56 583128.10,3265683.76 583128.10,3265683.76 583112.20,3265677.41 583112.20,3265677.41 583092.93,3265669.58 583092.93,3265669.58 583088.28,3265667.63 583088.28,3265667.63 583067.92,3265658.98 583067.92,3265658.98 583041.75,3265648.09 583041.75,3265648.09 583008.11,3265633.96 583008.11,3265633.96 582981.08,3265622.63 582981.08,3265622.63 582970.30,3265618.22">
        <lane index="0" width="3.66" />
    </edge>
    <edge id="660.0" from="node_660_start" to="node_660_end" numLanes="1" speed="13.89" type="town" shape="581273.36,3264866.99 581260.89,3264861.49 581260.89,3264861.49 581242.20,3264853.28 581242.20,3264853.28 581217.70,3264842.45 581217.70,3264842.45 581191.80,3264830.91 581191.80,3264830.91 581169.90,3264821.40 581169.90,3264821.40 581148.58,3264812.05 581148.58,3264812.05 581129.44,3264803.25 581129.44,3264803.25 581094.93,3264787.19 581094.93,3264787.19 581065.13,3264772.84 581065.13,3264772.84 581042.24,3264761.33">
        <lane index="0" width="3.66" />
    </edge>
    <edge id="670.0" from="node_670_start" to="node_670_end" numLanes="1" speed="13.89" type="town" shape="580155.01,3264370.16 580114.84,3264354.39 580114.84,3264354.39 580055.64,3264330.05 580055.64,3264330.05 580006.31,3264308.98 580006.31,3264308.98 579974.47,3264295.33 579974.47,3264295.33 579921.25,3264272.51 579921.25,3264272.51 579889.21,3264258.93 579889.21,3264258.93 579875.01,3264252.98">
        <lane index="0" width="3.66" />
    </edge>
    <edge id="865.0" from="node_865_start" to="junction_59" numLanes="3" speed="13.89" type="town" shape="584495.07,3266270.24 584492.52,3266269.14 584492.52,3266269.14 584473.68,3266260.70 584473.68,3266260.70 584443.66,3266247.45 584443.66,3266247.45 584410.76,3266232.91 584410.76,3266232.91 584374.79,3266217.13 584374.79,3266217.13 584340.07,3266201.77 584340.07,3266201.77 584309.12,3266188.16 584309.12,3266188.16 584267.92,3266169.95 584267.92,3266169.95 584230.69,3266153.59 584230.69,3266153.59 584194.20,3266137.43 584194.20,3266137.43 584167.07,3266125.49 584167.07,3266125.49 584146.82,3266116.62 584146.82,3266116.62 584125.53,3266107.26 584125.53,3266107.26 584109.88,3266100.29 584109.88,3266100.29 584085.26,3266089.43 584085.26,3266089.43 584066.74,3266081.28 584066.74,3266081.28 584049.58,3266073.68 584049.58,3266073.68 584035.53,3266067.50 584035.53,3266067.50 584020.25,3266060.78 584020.25,3266060.78 584002.77,3266053.06 584002.77,3266053.06 583989.38,3266047.22">
        <lane index="0" width="3.66" />
        <lane index="1" width="3.66" />
        <lane index="2" width="3.66" />
    </edge>
    <edge id="870.0" from="node_870_start" to="node_870_end" numLanes="3" speed="13.89" type="town" shape="583828.75,3265976.32 583827.06,3265975.58 583827.06,3265975.58 583788.74,3265958.65 583788.74,3265958.65 583750.44,3265941.77 583750.44,3265941.77 583720.25,3265928.57 583720.25,3265928.57 583687.16,3265913.82 583687.16,3265913.82 583655.92,3265900.01 583655.92,3265900.01 583638.31,3265892.22">
        <lane index="0" width="3.66" />
        <lane index="1" width="3.66" />
        <lane index="2" width="3.66" />
    </edge>
    <edge id="871.0" from="node_870_start" to="node_870_end" numLanes="1" speed="13.89" type="town" shape="583824.31,3265986.37 583792.80,3265971.83 583792.80,3265971.83 583761.29,3265957.26 583761.29,3265957.26 583729.79,3265942.68 583729.79,3265942.68 583698.30,3265928.10 583698.30,3265928.10 583666.78,3265913.53 583666.78,3265913.53 583635.26,3265898.98">
        <lane index="0" width="3.66" />
    </edge>
    <edge id="873.0" from="junction_59" to="node_870_start" numLanes="4" speed="13.89" type="town" shape="583941.54,3266026.10 583921.39,3266017.15 583921.39,3266017.15 583901.17,3266008.23 583901.17,3266008.23 583876.40,3265997.33 583876.40,3265997.33 583849.15,3265985.28 583849.15,3265985.28 583828.75,3265976.32">
        <lane index="0" width="3.66" />
        <lane index="1" width="3.66" />
        <lane index="2" width="3.66" />
        <lane index="3" width="3.66" />
    </edge>
    <edge id="875.0" from="junction_125" to="node_875_end" numLanes="3" speed="13.89" type="town" shape="583202.31,3265699.99 583176.93,3265688.77 583176.93,3265688.77 581047.42,3264749.68">
        <lane index="0" width="3.66" />
        <lane index="1" width="3.66" />
        <lane index="2" width="3.66" />
    </edge>
    <edge id="876.0" from="node_870_end" to="junction_125" numLanes="3" speed="13.89" type="town" shape="583638.31,3265892.22 583618.19,3265883.32 583618.19,3265883.32 583596.78,3265873.93 583596.78,3265873.93 583570.17,3265862.18 583570.17,3265862.18 583540.92,3265849.34 583540.92,3265849.34 583523.80,3265841.72 583523.80,3265841.72 583503.79,3265833.00 583503.79,3265833.00 583486.28,3265825.24 583486.28,3265825.24 583463.79,3265815.33 583463.79,3265815.33 583445.10,3265807.06 583445.10,3265807.06 583416.58,3265794.51 583416.58,3265794.51 583390.28,3265782.91 583390.28,3265782.91 583358.35,3265768.83 583358.35,3265768.83 583326.49,3265754.75 583326.49,3265754.75 583299.74,3265743.00 583299.74,3265743.00 583286.67,3265737.24">
        <lane index="0" width="3.66" />
        <lane index="1" width="3.66" />
        <lane index="2" width="3.66" />
    </edge>
    <edge id="879.0" from="junction_125" to="node_659_start" numLanes="1" speed="13.89" type="town" shape="583197.74,3265710.11 583184.77,3265705.39 583184.77,3265705.39 583172.61,3265700.83">
        <lane index="0" width="3.66" />
    </edge>
    <edge id="881.0" from="node_881_start" to="node_881_end" numLanes="3" speed="13.89" type="town" shape="580160.75,3264358.57 580137.84,3264348.40 580137.84,3264348.40 580118.25,3264339.92 580118.25,3264339.92 580104.41,3264333.69 580104.41,3264333.69 580078.29,3264322.34 580078.29,3264322.34 580059.36,3264313.86 580059.36,3264313.86 580013.48,3264293.66 580013.48,3264293.66 579965.40,3264272.41 579965.40,3264272.41 579930.95,3264257.31 579930.95,3264257.31 579903.37,3264245.07 579903.37,3264245.07 579876.04,3264233.02 579876.04,3264233.02 579835.20,3264215.08 579835.20,3264215.08 579795.93,3264197.65 579795.93,3264197.65 579733.46,3264170.16 579733.46,3264170.16 579678.56,3264145.91 579678.56,3264145.91 579660.56,3264138.01">
        <lane index="0" width="3.66" />
        <lane index="1" width="3.66" />
        <lane index="2" width="3.66" />
    </edge>
    <edge id="882.0" from="node_881_end" to="junction_50" numLanes="1" speed="13.89" type="town" shape="579660.56,3264138.01 579647.01,3264132.07 579647.01,3264132.07 579604.86,3264114.31 579604.86,3264114.31 579547.23,3264089.97 579547.23,3264089.97 579505.51,3264072.09 579505.51,3264072.09 579470.95,3264057.50 579470.95,3264057.50 579468.84,3264056.61">
        <lane index="0" width="3.66" />
    </edge>
    <edge id="883.0" from="junction_126" to="node_881_start" numLanes="3" speed="13.89" type="town" shape="580189.23,3264371.25 580168.39,3264361.90 580168.39,3264361.90 580160.75,3264358.57">
        <lane index="0" width="3.66" />
        <lane index="1" width="3.66" />
        <lane index="2" width="3.66" />
    </edge>
    <edge id="886.0" from="junction_126" to="node_670_start" numLanes="1" speed="13.89" type="town" shape="580184.67,3264381.05 580176.13,3264377.71 580176.13,3264377.71 580155.01,3264370.16">
        <lane index="0" width="3.66" />
    </edge>
    <edge id="887.0" from="node_881_end" to="junction_50" numLanes="2" speed="13.89" type="town" shape="579659.08,3264141.37 579627.48,3264126.99 579627.48,3264126.99 579595.78,3264112.85 579595.78,3264112.85 579564.04,3264098.78 579564.04,3264098.78 579532.30,3264084.75 579532.30,3264084.75 579500.58,3264070.66 579500.58,3264070.66 579468.84,3264056.61">
        <lane index="0" width="3.66" />
        <lane index="1" width="3.66" />
    </edge>
    <edge id="888.0" from="j_merge_end_60" to="junction_126" numLanes="3" speed="13.89" type="town" shape="580701.38,3264597.06 580691.06,3264592.52 580691.06,3264592.52 580670.08,3264583.19 580670.08,3264583.19 580639.92,3264569.94 580639.92,3264569.94 580613.37,3264558.12 580613.37,3264558.12 580582.73,3264544.64 580582.73,3264544.64 580549.62,3264530.08 580549.62,3264530.08 580518.11,3264516.18 580518.11,3264516.18 580493.60,3264505.37 580493.60,3264505.37 580464.59,3264492.48 580464.59,3264492.48 580436.97,3264480.38 580436.97,3264480.38 580408.85,3264468.06 580408.85,3264468.06 580390.45,3264459.96 580390.45,3264459.96 580359.85,3264446.46 580359.85,3264446.46 580329.95,3264433.19 580329.95,3264433.19 580297.68,3264419.00 580297.68,3264419.00 580284.54,3264413.19">
        <lane index="0" width="3.66" />
        <lane index="1" width="3.66" />
        <lane index="2" width="3.66" />
    </edge>
    <edge id="889.0" from="node_875_end" to="j_merge_start_60" numLanes="3" speed="13.89" type="town" shape="581047.42,3264749.68 581017.92,3264736.66 581017.92,3264736.66 581001.37,3264729.36">
        <lane index="0" width="3.66" />
        <lane index="1" width="3.66" />
        <lane index="2" width="3.66" />
    </edge>
    <edge id="892.0" from="node_660_end" to="j_merge_start_60" numLanes="1" speed="13.89" type="town" shape="581042.24,3264761.33 581015.91,3264748.41 581015.91,3264748.41 581004.39,3264742.87 581004.39,3264742.87 580996.67,3264739.26">
        <lane index="0" width="3.66" />
    </edge>
    <edge id="869.0" from="node_869_start" to="junction_59" numLanes="1" speed="13.89" type="town" shape="584101.67,3266114.53 584065.35,3266098.17 584065.35,3266098.17 584028.10,3266080.77">
        <lane index="0" width="3.66" />
    </edge>
    <edge id="merge_zone_60" from="j_merge_start_60" to="j_merge_end_60" numLanes="4" speed="13.89" name="Merge zone 60" type="highway_merge" shape="580941.68,3264703.01 580941.68,3264703.01 580907.25,3264687.86 580907.25,3264687.86 580885.17,3264678.13 580885.17,3264678.13 580877.06,3264674.46 580877.06,3264674.46 580856.18,3264665.28 580856.18,3264665.28 580815.71,3264647.45 580815.71,3264647.45 580798.96,3264640.12 580798.96,3264640.12 580753.97,3264620.30 580753.97,3264620.30 580715.90,3264603.45">
        <lane index="0" width="3.66" />
        <lane index="1" width="3.66" />
        <lane index="2" width="3.66" />
        <lane index="3" width="3.66" />
    </edge>
</edges>