<?xml version='1.0' encoding='utf-8'?>
<connections>
    <connection from="876.0" to="875.0" fromLane="0" toLane="0" />
    <connection from="876.0" to="875.0" fromLane="1" toLane="1" />
    <connection from="876.0" to="875.0" fromLane="2" toLane="2" />
    <connection from="876.0" to="879.0" fromLane="0" toLane="0" />
    <connection from="888.0" to="883.0" fromLane="0" toLane="0" />
    <connection from="888.0" to="883.0" fromLane="1" toLane="1" />
    <connection from="888.0" to="883.0" fromLane="2" toLane="2" />
    <connection from="888.0" to="886.0" fromLane="0" toLane="0" />
    <connection from="865.0" to="873.0" fromLane="0" toLane="1" />
    <connection from="865.0" to="873.0" fromLane="1" toLane="2" />
    <connection from="865.0" to="873.0" fromLane="2" toLane="3" />
    <connection from="889.0" to="merge_zone_60" fromLane="0" toLane="1" />
    <connection from="889.0" to="merge_zone_60" fromLane="2" toLane="3" />
    <connection from="889.0" to="merge_zone_60" fromLane="1" toLane="2" />
    <connection from="merge_zone_60" to="888.0" fromLane="1" toLane="0" />
    <connection from="merge_zone_60" to="888.0" fromLane="3" toLane="2" />
    <connection from="merge_zone_60" to="888.0" fromLane="2" toLane="1" />
    <connection from="892.0" to="merge_zone_60" fromLane="0" toLane="0" />
    <connection from="merge_zone_60" to="888.0" fromLane="0" toLane="2" dir="r" state="m" />
</connections>