<?xml version='1.0' encoding='utf-8'?>
<edges>
    <edge id="651.0" from="node_651_start" to="node_651_end" numLanes="2" speed="13.89" type="town" shape="748062.18,3290542.93 748092.36,3290550.64 748092.36,3290550.64 748158.65,3290567.49 748158.65,3290567.49 748235.75,3290587.27 748235.75,3290587.27 748304.00,3290604.77 748304.00,3290604.77 748398.33,3290629.07 748398.33,3290629.07 748512.90,3290658.46 748512.90,3290658.46 748573.77,3290673.94 748573.77,3290673.94 748654.41,3290694.61 748654.41,3290694.61 748695.62,3290705.80 748695.62,3290705.80 748736.82,3290717.69 748736.82,3290717.69 748770.30,3290726.79 748770.30,3290726.79 748803.51,3290735.49 748803.51,3290735.49 748853.71,3290748.31 748853.71,3290748.31 748903.94,3290760.32 748903.94,3290760.32 748955.01,3290772.01 748955.01,3290772.01 749006.02,3290784.62 749006.02,3290784.62 749113.04,3290812.11 749113.04,3290812.11 749189.22,3290831.70 749189.22,3290831.70 749263.51,3290850.80 749263.51,3290850.80 749320.20,3290865.33 749320.20,3290865.33 749366.54,3290877.13 749366.54,3290877.13 749443.87,3290896.84 749443.87,3290896.84 749501.51,3290911.62 749501.51,3290911.62 749530.70,3290919.18">
        <lane index="0" width="3.66" />
        <lane index="1" width="3.66" />
    </edge>
    <edge id="652.0" from="node_893_end" to="node_651_start" numLanes="2" speed="13.89" type="town" shape="747797.38,3290474.84 747804.96,3290476.90 747804.96,3290476.90 747863.95,3290492.13 747863.95,3290492.13 747910.86,3290504.00 747910.86,3290504.00 747962.78,3290517.28 747962.78,3290517.28 748006.10,3290528.61 748006.10,3290528.61 748062.18,3290542.93">
        <lane index="0" width="3.66" />
        <lane index="1" width="3.66" />
    </edge>
    <edge id="893.0" from="junction_110" to="node_652_start" numLanes="4" speed="13.89" type="town" shape="747155.16,3290336.16 747194.71,3290341.67 747194.71,3290341.67 747203.45,3290343.06 747203.45,3290343.06 747221.44,3290348.16 747221.44,3290348.16 747248.42,3290352.37 747248.42,3290352.37 747276.27,3290357.68 747276.27,3290357.68 747296.75,3290361.04 747296.75,3290361.04 747334.07,3290367.54 747334.07,3290367.54 747356.42,3290371.79 747356.42,3290371.79 747397.56,3290379.92 747397.56,3290379.92 747438.24,3290388.31 747438.24,3290388.31 747478.61,3290397.32 747478.61,3290397.32 747498.26,3290401.80 747498.26,3290401.80 747518.79,3290406.64 747518.79,3290406.64 747558.64,3290415.99 747558.64,3290415.99 747598.79,3290425.06 747598.79,3290425.06 747637.82,3290433.96 747637.82,3290433.96 747658.05,3290438.81 747658.05,3290438.81 747678.11,3290443.79 747678.11,3290443.79 747697.76,3290448.74 747697.76,3290448.74 747717.54,3290453.97 747717.54,3290453.97 747758.86,3290465.31 747758.86,3290465.31 747797.18,3290475.54">
        <lane index="0" width="3.66" type="shoulder" disallow="all" />
        <lane index="1" width="3.66" />
        <lane index="2" width="3.66" />
        <lane index="3" width="3.66" type="shoulder" disallow="all" />
    </edge>
    <edge id="891.0" from="junction_51" to="junction_110" numLanes="5" speed="13.89" type="town" shape="746616.37,3290262.63 746666.66,3290269.59 746666.66,3290269.59 746716.59,3290276.37 746716.59,3290276.37 746766.57,3290283.13 746766.57,3290283.13 746817.65,3290290.14 746817.65,3290290.14 746867.75,3290297.00 746867.75,3290297.00 746917.24,3290303.68 746917.24,3290303.68 746967.00,3290310.46 746967.00,3290310.46 747016.92,3290317.40 747016.92,3290317.40 747067.10,3290324.14">
        <lane index="0" width="3.66" type="shoulder" disallow="all" />
        <lane index="1" width="3.66" />
        <lane index="2" width="3.66" />
        <lane index="3" width="3.66" />
        <lane index="4" width="3.66" type="shoulder" disallow="all" />
    </edge>
</edges>