<?xml version='1.0' encoding='utf-8'?>
<connections>
    <connection from="891.0" to="893.0" fromLane="4" toLane="3" />
    <connection from="891.0" to="893.0" fromLane="3" toLane="2" />
    <connection from="891.0" to="893.0" fromLane="2" toLane="1" />
</connections>