<?xml version='1.0' encoding='utf-8'?>
<edges>
    <edge id="441.0" from="node_441_start" to="junction_99" numLanes="3" speed="13.89" type="town" shape="616121.96,3276875.91 616109.36,3276871.56 616109.36,3276871.56 616087.32,3276863.94 616087.32,3276863.94 616062.75,3276855.37 616062.75,3276855.37 616038.74,3276847.09 616038.74,3276847.09 616016.20,3276839.20 616016.20,3276839.20 615991.17,3276830.61 615991.17,3276830.61 615965.48,3276821.90 615965.48,3276821.90 615953.69,3276817.96">
        <lane index="0" width="3.66" />
        <lane index="1" width="3.66" />
        <lane index="2" width="3.66" />
    </edge>
    <edge id="443.0" from="node_443_start" to="node_443_end" numLanes="2" speed="13.89" type="town" shape="616823.89,3277119.30 616806.28,3277113.18 616806.28,3277113.18 616780.61,3277104.25 616780.61,3277104.25 616753.65,3277094.93 616753.65,3277094.93 616725.90,3277085.25 616725.90,3277085.25 616723.22,3277084.35">
        <lane index="0" width="3.66" />
        <lane index="1" width="3.66" />
    </edge>
    <edge id="444.0" from="junction_97" to="node_444_end" numLanes="1" speed="13.89" type="town" shape="619707.55,3278126.28 619704.30,3278125.60 619704.30,3278125.60 619697.22,3278123.96 619697.22,3278123.96 619691.81,3278122.74 619691.81,3278122.74 619684.58,3278121.11 619684.58,3278121.11 619678.47,3278119.65">
        <lane index="0" width="3.66" />
    </edge>
    <edge id="445.0" from="junction_35" to="node_445_end" numLanes="3" speed="13.89" type="town" shape="615227.66,3276730.32 615197.50,3276729.72 615197.50,3276729.72 615169.24,3276729.17 615169.24,3276729.17 615140.08,3276728.56 615140.08,3276728.56 615110.14,3276728.10 615110.14,3276728.10 615091.70,3276727.69 615091.70,3276727.69 615081.18,3276727.45 615081.18,3276727.45 615039.56,3276726.56 615039.56,3276726.56 614994.64,3276725.60 614994.64,3276725.60 614949.31,3276724.83 614949.31,3276724.83 614906.87,3276723.89 614906.87,3276723.89 614870.75,3276723.11">
        <lane index="0" width="3.66" />
        <lane index="1" width="3.66" />
        <lane index="2" width="3.66" />
    </edge>
    <edge id="446.0" from="node_446_start" to="junction_36" numLanes="3" speed="13.89" type="town" shape="619681.56,3278109.88 619666.86,3278104.79 619666.86,3278104.79 619650.58,3278099.11 619650.58,3278099.11 619634.90,3278093.66 619634.90,3278093.66 619628.08,3278091.27 619628.08,3278091.27 619613.55,3278086.20 619613.55,3278086.20 619598.04,3278080.85 619598.04,3278080.85 619582.51,3278075.52 619582.51,3278075.52 619564.25,3278069.26 619564.25,3278069.26 619543.12,3278062.02 619543.12,3278062.02 619527.92,3278056.73 619527.92,3278056.73 619507.29,3278049.71 619507.29,3278049.71 619490.30,3278043.82 619490.30,3278043.82 619476.26,3278038.96 619476.26,3278038.96 619458.83,3278032.91 619458.83,3278032.91 619437.40,3278025.51 619437.40,3278025.51 619421.34,3278019.95 619421.34,3278019.95 619404.07,3278013.94 619404.07,3278013.94 619386.87,3278007.95 619386.87,3278007.95 619374.14,3278003.54 619374.14,3278003.54 619357.56,3277997.81 619357.56,3277997.81 619335.62,3277990.19 619335.62,3277990.19 619314.97,3277983.00 619314.97,3277983.00 619297.14,3277976.82 619297.14,3277976.82 619275.99,3277969.45 619275.99,3277969.45 619250.09,3277960.38 619250.09,3277960.38 619231.98,3277954.08 619231.98,3277954.08 619212.66,3277947.42 619212.66,3277947.42 619186.01,3277938.19 619186.01,3277938.19 619167.33,3277931.72 619167.33,3277931.72 619142.16,3277923.04 619142.16,3277923.04 619118.63,3277914.83 619118.63,3277914.83 619092.80,3277905.92 619092.80,3277905.92 619066.42,3277896.81 619066.42,3277896.81 619041.83,3277888.31 619041.83,3277888.31 619017.72,3277879.98 619017.72,3277879.98 618995.97,3277872.42 618995.97,3277872.42 618981.14,3277867.28 618981.14,3277867.28 618960.39,3277860.11 618960.39,3277860.11 618936.78,3277851.91 618936.78,3277851.91 618913.50,3277843.84 618913.50,3277843.84 618884.82,3277833.89 618884.82,3277833.89 618865.80,3277827.28 618865.80,3277827.28 618847.88,3277821.08 618847.88,3277821.08 618829.88,3277814.81 618829.88,3277814.81 618819.71,3277811.30 618819.71,3277811.30 618809.17,3277807.65 618809.17,3277807.65 618795.05,3277802.70 618795.05,3277802.70 618779.91,3277797.46 618779.91,3277797.46 618762.37,3277791.44 618762.37,3277791.44 618750.06,3277787.19">
        <lane index="0" width="3.66" type="shoulder" disallow="all" />
        <lane index="1" width="3.66" />
        <lane index="2" width="3.66" />
    </edge>
    <edge id="447.0" from="node_447_start" to="node_447_end" numLanes="2" speed="13.89" type="town" shape="617995.93,3277525.72 617976.92,3277519.14 617976.92,3277519.14 617958.07,3277512.55 617958.07,3277512.55 617933.91,3277504.26">
        <lane index="0" width="3.66" />
        <lane index="1" width="3.66" />
    </edge>
    <edge id="448.0" from="junction_99" to="node_448_end" numLanes="1" speed="13.89" type="town" shape="615906.78,3276814.28 615897.09,3276813.06 615897.09,3276813.06 615891.40,3276812.60 615891.40,3276812.60 615884.21,3276812.30 615884.21,3276812.30 615874.28,3276811.98 615874.28,3276811.98 615861.26,3276812.16 615861.26,3276812.16 615846.79,3276812.10 615846.79,3276812.10 615829.72,3276812.40 615829.72,3276812.40 615822.20,3276812.40">
        <lane index="0" width="3.66" />
    </edge>
    <edge id="449.0" from="node_443_end" to="node_449_end" numLanes="3" speed="13.89" type="town" shape="616723.22,3277084.35 616700.95,3277076.65 616700.95,3277076.65 616673.71,3277067.13 616673.71,3277067.13 616647.29,3277057.94 616647.29,3277057.94 616622.22,3277049.26 616622.22,3277049.26 616596.22,3277040.27 616596.22,3277040.27 616570.99,3277031.60 616570.99,3277031.60 616538.89,3277020.45 616538.89,3277020.45 616506.66,3277009.42 616506.66,3277009.42 616473.64,3276997.85 616473.64,3276997.85 616440.82,3276986.61 616440.82,3276986.61 616409.35,3276975.72 616409.35,3276975.72 616375.68,3276964.08 616375.68,3276964.08 616336.50,3276950.49 616336.50,3276950.49 616300.67,3276937.95 616300.67,3276937.95 616267.21,3276926.34 616267.21,3276926.34 616240.52,3276917.10 616240.52,3276917.10 616208.97,3276906.11">
        <lane index="0" width="3.66" />
        <lane index="1" width="3.66" />
        <lane index="2" width="3.66" />
    </edge>
    <edge id="450.0" from="junction_99" to="junction_35" numLanes="3" speed="13.89" type="town" shape="615910.06,3276804.66 615900.18,3276801.80 615900.18,3276801.80 615890.36,3276799.12 615890.36,3276799.12 615861.85,3276791.47 615861.85,3276791.47 615846.92,3276787.62 615846.92,3276787.62 615833.34,3276784.10 615833.34,3276784.10 615817.61,3276780.41 615817.61,3276780.41 615800.85,3276776.56 615800.85,3276776.56 615779.81,3276771.93 615779.81,3276771.93 615761.06,3276768.01 615761.06,3276768.01 615743.66,3276764.59 615743.66,3276764.59 615726.02,3276761.36 615726.02,3276761.36 615709.94,3276758.60 615709.94,3276758.60 615694.12,3276755.97 615694.12,3276755.97 615679.15,3276753.69 615679.15,3276753.69 615664.51,3276751.59 615664.51,3276751.59 615648.86,3276749.48 615648.86,3276749.48 615633.15,3276747.46 615633.15,3276747.46 615616.14,3276745.46 615616.14,3276745.46 615595.77,3276743.35 615595.77,3276743.35 615579.21,3276741.79 615579.21,3276741.79 615564.53,3276740.41 615564.53,3276740.41 615546.29,3276738.95 615546.29,3276738.95 615528.21,3276737.76 615528.21,3276737.76 615508.43,3276736.69 615508.43,3276736.69 615494.88,3276736.06 615494.88,3276736.06 615477.34,3276735.47 615477.34,3276735.47 615461.18,3276734.99 615461.18,3276734.99 615443.82,3276734.64 615443.82,3276734.64 615428.60,3276734.28 615428.60,3276734.28 615412.74,3276733.97 615412.74,3276733.97 615391.28,3276733.53 615391.28,3276733.53 615369.37,3276733.11 615369.37,3276733.11 615354.37,3276732.86 615354.37,3276732.86 615341.20,3276732.60 615341.20,3276732.60 615328.53,3276732.42 615328.53,3276732.42 615317.44,3276732.12">
        <lane index="0" width="3.66" type="shoulder" disallow="all" />
        <lane index="1" width="3.66" />
        <lane index="2" width="3.66" />
    </edge>
    <edge id="451.0" from="junction_36" to="node_451_end" numLanes="3" speed="13.89" type="town" shape="618696.43,3277768.67 618685.14,3277764.69 618685.14,3277764.69 618669.25,3277759.21 618669.25,3277759.21 618643.65,3277750.34 618643.65,3277750.34 618623.38,3277743.36 618623.38,3277743.36 618605.44,3277737.06 618605.44,3277737.06 618588.46,3277731.20 618588.46,3277731.20 618572.07,3277725.54 618572.07,3277725.54 618560.26,3277721.46">
        <lane index="0" width="3.66" />
        <lane index="1" width="3.66" />
        <lane index="2" width="3.66" />
    </edge>
    <edge id="455.0" from="node_445_end" to="node_455_end" numLanes="2" speed="13.89" type="town" shape="614870.75,3276723.11 614858.39,3276722.89 614858.39,3276722.89 614847.35,3276722.68 614847.35,3276722.68 614836.01,3276722.50 614836.01,3276722.50 614824.52,3276722.26 614824.52,3276722.26 614811.61,3276722.05 614811.61,3276722.05 614794.44,3276721.67 614794.44,3276721.67 614776.07,3276721.22 614776.07,3276721.22 614764.77,3276721.05">
        <lane index="0" width="3.66" />
        <lane index="1" width="3.66" />
    </edge>
    <edge id="456.0" from="node_444_end" to="node_456_end" numLanes="1" speed="13.89" type="town" shape="619678.47,3278119.65 619674.48,3278118.79 619674.48,3278118.79 619668.40,3278117.41 619668.40,3278117.41 619660.89,3278115.80 619660.89,3278115.80 619654.17,3278114.31 619654.17,3278114.31 619645.16,3278112.52 619645.16,3278112.52 619636.04,3278110.96 619636.04,3278110.96 619629.07,3278109.91 619629.07,3278109.91 619623.46,3278109.22 619623.46,3278109.22 619611.82,3278107.66 619611.82,3278107.66 619602.33,3278106.53 619602.33,3278106.53 619592.52,3278105.35 619592.52,3278105.35 619582.11,3278104.19 619582.11,3278104.19 619574.32,3278103.24 619574.32,3278103.24 619565.03,3278102.22 619565.03,3278102.22 619554.97,3278101.17 619554.97,3278101.17 619546.37,3278100.21 619546.37,3278100.21 619536.82,3278099.16 619536.82,3278099.16 619523.88,3278097.79 619523.88,3278097.79 619510.63,3278096.18 619510.63,3278096.18 619495.44,3278093.74 619495.44,3278093.74 619483.73,3278091.59 619483.73,3278091.59 619468.98,3278087.86">
        <lane index="0" width="3.66" />
    </edge>
    <edge id="458.0" from="node_458_start" to="node_447_start" numLanes="3" speed="13.89" type="town" shape="618473.82,3277691.49 618460.69,3277686.94 618460.69,3277686.94 618444.18,3277681.22 618444.18,3277681.22 618423.58,3277674.10 618423.58,3277674.10 618399.81,3277665.84 618399.81,3277665.84 618374.87,3277657.16 618374.87,3277657.16 618331.39,3277641.96 618331.39,3277641.96 618301.57,3277631.63 618301.57,3277631.63 618269.85,3277620.58 618269.85,3277620.58 618240.37,3277610.33 618240.37,3277610.33 618212.41,3277600.60 618212.41,3277600.60 618180.58,3277589.63 618180.58,3277589.63 618142.55,3277576.50 618142.55,3277576.50 618106.84,3277564.21 618106.84,3277564.21 618071.14,3277551.80 618071.14,3277551.80 618036.73,3277539.86 618036.73,3277539.86 617995.93,3277525.72">
        <lane index="0" width="3.66" />
        <lane index="1" width="3.66" />
        <lane index="2" width="3.66" />
    </edge>
    <edge id="461.0" from="junction_100" to="node_461_end" numLanes="1" speed="13.89" type="town" shape="617894.09,3277501.14 617888.87,3277500.28 617888.87,3277500.28 617870.02,3277497.01 617870.02,3277497.01 617838.23,3277491.64 617838.23,3277491.64 617824.36,3277489.30 617824.36,3277489.30 617795.47,3277484.41 617795.47,3277484.41 617767.16,3277479.58 617767.16,3277479.58 617742.08,3277475.23 617742.08,3277475.23 617709.49,3277469.61 617709.49,3277469.61 617677.62,3277464.21 617677.62,3277464.21 617639.11,3277457.61">
        <lane index="0" width="3.66" />
    </edge>
    <edge id="464.0" from="node_464_start" to="junction_36" numLanes="1" speed="13.89" type="town" shape="618904.11,3277880.31 618893.59,3277873.45 618893.59,3277873.45 618880.08,3277864.93 618880.08,3277864.93 618867.49,3277857.30 618867.49,3277857.30 618855.01,3277849.98 618855.01,3277849.98 618845.28,3277844.56 618845.28,3277844.56 618835.19,3277839.00 618835.19,3277839.00 618824.91,3277833.53 618824.91,3277833.53 618821.61,3277831.75 618821.61,3277831.75 618809.00,3277825.26 618809.00,3277825.26 618795.48,3277818.60 618795.48,3277818.60 618780.93,3277811.71 618780.93,3277811.71 618771.27,3277807.22 618771.27,3277807.22 618761.66,3277802.93 618761.66,3277802.93 618753.18,3277799.39 618753.18,3277799.39 618746.42,3277796.61">
        <lane index="0" width="3.66" />
    </edge>
    <edge id="465.0" from="node_447_end" to="junction_100" numLanes="3" speed="13.89" type="town" shape="617933.91,3277504.26 617921.00,3277499.80">
        <lane index="0" width="3.66" />
        <lane index="1" width="3.66" />
        <lane index="2" width="3.66" />
    </edge>
    <edge id="466.0" from="node_466_start" to="junction_37" numLanes="1" speed="13.89" type="town" shape="617177.26,3277294.23 617143.99,3277274.32 617143.99,3277274.32 617108.01,3277252.88 617108.01,3277252.88 617073.24,3277232.28 617073.24,3277232.28 617050.25,3277219.38 617050.25,3277219.38 617032.95,3277210.50 617032.95,3277210.50 617013.85,3277201.34 617013.85,3277201.34 616994.06,3277192.40 616994.06,3277192.40 616975.81,3277184.66 616975.81,3277184.66 616955.75,3277176.50 616955.75,3277176.50 616942.18,3277171.07">
        <lane index="0" width="3.66" />
    </edge>
    <edge id="468.0" from="junction_97" to="node_446_start" numLanes="2" speed="13.89" type="town" shape="619709.85,3278119.67 619700.00,3278116.25 619700.00,3278116.25 619688.81,3278112.39 619688.81,3278112.39 619681.56,3278109.88">
        <lane index="0" width="3.66" />
        <lane index="1" width="3.66" />
    </edge>
    <edge id="470.0" from="junction_100" to="junction_37" numLanes="3" speed="13.89" type="town" shape="617897.12,3277491.56 617884.60,3277487.18 617884.60,3277487.18 617871.13,3277482.52 617871.13,3277482.52 617853.31,3277476.33 617853.31,3277476.33 617842.41,3277472.52 617842.41,3277472.52 617831.39,3277468.65 617831.39,3277468.65 617805.47,3277459.72 617805.47,3277459.72 617778.47,3277450.36 617778.47,3277450.36 617750.93,3277440.80 617750.93,3277440.80 617731.08,3277433.93 617731.08,3277433.93 617703.51,3277424.37 617703.51,3277424.37 617678.36,3277415.67 617678.36,3277415.67 617648.29,3277405.26 617648.29,3277405.26 617623.89,3277396.85 617623.89,3277396.85 617597.81,3277387.90 617597.81,3277387.90 617563.35,3277375.86 617563.35,3277375.86 617522.23,3277361.63 617522.23,3277361.63 617492.20,3277351.25 617492.20,3277351.25 617460.98,3277340.37 617460.98,3277340.37 617426.15,3277328.18 617426.15,3277328.18 617393.22,3277316.78 617393.22,3277316.78 617363.23,3277306.24 617363.23,3277306.24 617325.37,3277293.15 617325.37,3277293.15 617289.71,3277280.77 617289.71,3277280.77 617251.77,3277267.58 617251.77,3277267.58 617211.71,3277253.72 617211.71,3277253.72 617161.93,3277236.40 617161.93,3277236.40 617113.77,3277219.71 617113.77,3277219.71 617074.38,3277206.05 617074.38,3277206.05 617057.53,3277200.19 617057.53,3277200.19 617044.62,3277195.77 617044.62,3277195.77 617027.38,3277189.77 617027.38,3277189.77 617010.60,3277183.90 617010.60,3277183.90 616993.60,3277178.06 616993.60,3277178.06 616972.16,3277170.67 616972.16,3277170.67 616952.52,3277163.86 616952.52,3277163.86 616946.23,3277161.70">
        <lane index="0" width="3.66" />
        <lane index="1" width="3.66" />
        <lane index="2" width="3.66" />
    </edge>
    <edge id="472.0" from="node_451_end" to="node_458_start" numLanes="2" speed="13.89" type="town" shape="618560.26,3277721.46 618534.44,3277712.52 618534.44,3277712.52 618508.22,3277703.38 618508.22,3277703.38 618481.79,3277694.22 618481.79,3277694.22 618473.82,3277691.49">
        <lane index="0" width="3.66" />
        <lane index="1" width="3.66" />
    </edge>
    <edge id="473.0" from="junction_37" to="node_443_start" numLanes="3" speed="13.89" type="town" shape="616883.54,3277140.03 616870.13,3277135.38 616870.13,3277135.38 616852.62,3277129.30 616852.62,3277129.30 616834.08,3277122.80 616834.08,3277122.80 616823.89,3277119.30">
        <lane index="0" width="3.66" />
        <lane index="1" width="3.66" />
        <lane index="2" width="3.66" />
    </edge>
    <edge id="474.0" from="node_451_end" to="node_458_start" numLanes="1" speed="13.89" type="town" shape="618557.55,3277728.03 618472.71,3277694.98">
        <lane index="0" width="3.66" />
    </edge>
    <edge id="475.0" from="node_449_end" to="node_441_start" numLanes="1" speed="13.89" type="town" shape="616207.91,3276909.60 616120.04,3276882.38">
        <lane index="0" width="3.66" />
    </edge>
    <edge id="476.0" from="node_445_end" to="node_455_end" numLanes="1" speed="13.89" type="town" shape="614871.25,3276730.23 614815.68,3276727.37 614815.68,3276727.37 614764.73,3276724.73">
        <lane index="0" width="3.66" />
    </edge>
    <edge id="477.0" from="node_449_end" to="node_441_start" numLanes="2" speed="13.89" type="town" shape="616208.97,3276906.11 616203.45,3276904.18 616203.45,3276904.18 616163.67,3276890.39 616163.67,3276890.39 616121.96,3276875.91">
        <lane index="0" width="3.66" />
        <lane index="1" width="3.66" />
    </edge>
    <edge id="478.0" from="node_478_start" to="junction_35" numLanes="1" speed="13.89" type="town" shape="615448.99,3276805.23 615438.52,3276795.53 615438.52,3276795.53 615426.47,3276785.13 615426.47,3276785.13 615401.84,3276769.66 615401.84,3276769.66 615389.42,3276762.83 615389.42,3276762.83 615378.05,3276757.58 615378.05,3276757.58 615367.22,3276752.94 615367.22,3276752.94 615352.98,3276747.72 615352.98,3276747.72 615343.88,3276745.73 615343.88,3276745.73 615339.34,3276744.83 615339.34,3276744.83 615334.37,3276744.07 615334.37,3276744.07 615328.09,3276743.28 615328.09,3276743.28 615321.32,3276742.53 615321.32,3276742.53 615317.80,3276742.27">
        <lane index="0" width="3.66" />
    </edge>
    <edge id="499.0" from="node_447_start" to="node_447_end" numLanes="1" speed="13.89" type="town" shape="617994.74,3277529.17 617973.71,3277523.05 617973.71,3277523.05 617952.69,3277517.00 617952.69,3277517.00 617931.70,3277510.94">
        <lane index="0" width="3.66" />
    </edge>
    <edge id="500.0" from="node_443_start" to="node_443_end" numLanes="1" speed="13.89" type="town" shape="616821.90,3277126.05 616788.48,3277113.25 616788.48,3277113.25 616755.15,3277100.51 616755.15,3277100.51 616721.91,3277087.75">
        <lane index="0" width="3.66" />
    </edge>
    <edge id="505.0" from="junction_38" to="node_505_end" numLanes="3" speed="13.89" type="town" shape="612634.23,3276679.98 612606.55,3276679.43 612606.55,3276679.43 612571.83,3276678.79 612571.83,3276678.79 612537.09,3276678.06 612537.09,3276678.06 612497.05,3276677.26 612497.05,3276677.26 612447.66,3276676.32">
        <lane index="0" width="3.66" />
        <lane index="1" width="3.66" />
        <lane index="2" width="3.66" />
    </edge>
    <edge id="506.0" from="junction_117" to="node_506_end" numLanes="2" speed="13.89" type="town" shape="613586.49,3276698.37 613563.94,3276697.92">
        <lane index="0" width="3.66" />
        <lane index="1" width="3.66" />
    </edge>
    <edge id="509.0" from="node_505_end" to="node_511_end" numLanes="1" speed="13.89" type="town" shape="612447.63,3276683.40 612296.77,3276677.09">
        <lane index="0" width="3.66" />
    </edge>
    <edge id="510.0" from="junction_117" to="node_510_end" numLanes="1" speed="13.89" type="town" shape="613586.04,3276705.43 613574.85,3276706.83 613574.85,3276706.83 613563.63,3276708.08">
        <lane index="0" width="3.66" />
    </edge>
    <edge id="511.0" from="node_505_end" to="node_511_end" numLanes="2" speed="13.89" type="town" shape="612447.66,3276676.32 612362.93,3276674.74 612362.93,3276674.74 612296.96,3276673.42">
        <lane index="0" width="3.66" />
        <lane index="1" width="3.66" />
    </edge>
    <edge id="512.0" from="node_506_end" to="junction_38" numLanes="3" speed="13.89" type="town" shape="613563.94,3276697.92 613522.48,3276697.14 613522.48,3276697.14 613499.91,3276696.72 613499.91,3276696.72 613447.95,3276695.71 613447.95,3276695.71 613379.30,3276694.34 613379.30,3276694.34 613326.77,3276693.41 613326.77,3276693.41 613286.51,3276692.63 613286.51,3276692.63 613237.07,3276691.67 613237.07,3276691.67 613186.47,3276690.68 613186.47,3276690.68 613180.75,3276690.59 613180.75,3276690.59 613157.54,3276690.10 613157.54,3276690.10 613130.97,3276689.59 613130.97,3276689.59 613120.44,3276689.38 613120.44,3276689.38 613106.51,3276689.07 613106.51,3276689.07 613078.78,3276688.49 613078.78,3276688.49 613052.78,3276688.04 613052.78,3276688.04 613039.30,3276687.77 613039.30,3276687.77 613008.63,3276687.21 613008.63,3276687.21 612971.02,3276686.51 612971.02,3276686.51 612942.61,3276685.96 612942.61,3276685.96 612900.98,3276685.17 612900.98,3276685.17 612864.40,3276684.49 612864.40,3276684.49 612827.33,3276683.77 612827.33,3276683.77 612789.44,3276683.03 612789.44,3276683.03 612750.16,3276682.25 612750.16,3276682.25 612730.50,3276681.87 612730.50,3276681.87 612712.31,3276681.52 612712.31,3276681.52 612689.82,3276681.13 612689.82,3276681.13 612674.27,3276680.80">
        <lane index="0" width="3.66" type="shoulder" disallow="all" />
        <lane index="1" width="3.66" />
        <lane index="2" width="3.66" />
    </edge>
    <edge id="516.0" from="node_511_end" to="junction_101" numLanes="3" speed="13.89" type="town" shape="612296.96,3276673.42 612276.35,3276673.05 612276.35,3276673.05 612241.02,3276672.38 612241.02,3276672.38 612212.36,3276671.81 612212.36,3276671.81 612165.28,3276670.85 612165.28,3276670.85 612129.74,3276670.10 612129.74,3276670.10 612097.55,3276669.44 612097.55,3276669.44 612064.61,3276668.80 612064.61,3276668.80 612036.48,3276668.29 612036.48,3276668.29 612003.65,3276667.66 612003.65,3276667.66 611974.79,3276667.13 611974.79,3276667.13 611946.22,3276666.60 611946.22,3276666.60 611942.32,3276666.52 611942.32,3276666.52 611934.82,3276666.39 611934.82,3276666.39 611915.10,3276666.04 611915.10,3276666.04 611880.49,3276665.38 611880.49,3276665.38 611853.44,3276664.85 611853.44,3276664.85 611831.14,3276664.44 611831.14,3276664.44 611802.32,3276663.87 611802.32,3276663.87 611763.01,3276663.06 611763.01,3276663.06 611725.26,3276662.26 611725.26,3276662.26 611699.10,3276661.75 611699.10,3276661.75 611660.42,3276660.91 611660.42,3276660.91 611615.55,3276659.83 611615.55,3276659.83 611569.05,3276658.75 611569.05,3276658.75 611531.98,3276657.83 611531.98,3276657.83 611490.99,3276656.36 611490.99,3276656.36 611470.93,3276655.21 611470.93,3276655.21 611454.98,3276654.19 611454.98,3276654.19 611438.39,3276652.96 611438.39,3276652.96 611422.32,3276651.60 611422.32,3276651.60 611407.06,3276650.17 611407.06,3276650.17 611380.68,3276647.16 611380.68,3276647.16 611358.87,3276644.39 611358.87,3276644.39 611337.18,3276641.34 611337.18,3276641.34 611304.31,3276636.32 611304.31,3276636.32 611277.29,3276631.81 611277.29,3276631.81 611250.79,3276626.95 611250.79,3276626.95 611237.17,3276624.29 611237.17,3276624.29 611223.37,3276621.40 611223.37,3276621.40 611206.57,3276617.71 611206.57,3276617.71 611183.11,3276612.32 611183.11,3276612.32 611156.06,3276605.63 611156.06,3276605.63 611124.83,3276597.38 611124.83,3276597.38 611056.69,3276578.88 611056.69,3276578.88 610973.78,3276556.45 610973.78,3276556.45 610917.15,3276540.85 610917.15,3276540.85 610846.29,3276521.44 610846.29,3276521.44 610798.88,3276508.41 610798.88,3276508.41 610715.88,3276485.64 610715.88,3276485.64 610637.65,3276464.33 610637.65,3276464.33 610597.69,3276453.35 610597.69,3276453.35 610551.13,3276440.56 610551.13,3276440.56 610527.92,3276434.22 610527.92,3276434.22 610469.98,3276418.30 610469.98,3276418.30 610419.96,3276404.55 610419.96,3276404.55 610354.49,3276386.58 610354.49,3276386.58 610289.08,3276368.68 610289.08,3276368.68 610218.78,3276349.45 610218.78,3276349.45 610141.37,3276328.22 610141.37,3276328.22 610043.30,3276301.35 610043.30,3276301.35 609953.86,3276276.81 609953.86,3276276.81 609858.45,3276250.60">
        <lane index="0" width="3.66" type="shoulder" disallow="all" />
        <lane index="1" width="3.66" />
        <lane index="2" width="3.66" />
    </edge>
    <edge id="519.0" from="node_510_end" to="node_519_end" numLanes="1" speed="13.89" type="town" shape="613563.63,3276708.08 613534.46,3276711.67 613534.46,3276711.67 613499.83,3276715.82 613499.83,3276715.82 613469.79,3276719.60 613469.79,3276719.60 613444.51,3276722.82 613444.51,3276722.82 613415.60,3276726.21 613415.60,3276726.21 613396.59,3276728.41 613396.59,3276728.41 613373.47,3276731.06 613373.47,3276731.06 613346.26,3276734.19 613346.26,3276734.19 613318.70,3276737.31 613318.70,3276737.31 613309.38,3276738.41">
        <lane index="0" width="3.66" />
    </edge>
    <edge id="522.0" from="node_522_start" to="junction_38" numLanes="1" speed="13.89" type="town" shape="612945.29,3276728.95 612914.71,3276724.48 612914.71,3276724.48 612883.23,3276719.88 612883.23,3276719.88 612846.37,3276714.42 612846.37,3276714.42 612815.27,3276709.91 612815.27,3276709.91 612782.95,3276705.21 612782.95,3276705.21 612749.60,3276700.25 612749.60,3276700.25 612727.86,3276697.33 612727.86,3276697.33 612716.02,3276695.80 612716.02,3276695.80 612702.50,3276694.11 612702.50,3276694.11 612689.88,3276692.70 612689.88,3276692.70 612673.51,3276690.92">
        <lane index="0" width="3.66" />
    </edge>
    <edge id="766.0" from="node_766_start" to="junction_117" numLanes="3" speed="13.89" type="town" shape="614716.07,3276720.08 614689.59,3276719.58 614689.59,3276719.58 614625.19,3276718.33 614625.19,3276718.33 614564.89,3276717.22 614564.89,3276717.22 614518.70,3276716.38 614518.70,3276716.38 614477.01,3276715.57 614477.01,3276715.57 614433.36,3276714.72 614433.36,3276714.72 614393.87,3276713.97 614393.87,3276713.97 614347.04,3276713.10 614347.04,3276713.10 614307.19,3276712.33 614307.19,3276712.33 614270.88,3276711.61 614270.88,3276711.61 614228.16,3276710.78 614228.16,3276710.78 614188.83,3276709.98 614188.83,3276709.98 614146.17,3276709.13 614146.17,3276709.13 614103.84,3276708.32 614103.84,3276708.32 614056.58,3276707.43 614056.58,3276707.43 614013.28,3276706.56 614013.28,3276706.56 613978.25,3276705.95 613978.25,3276705.95 613927.87,3276705.02 613927.87,3276705.02 613880.45,3276704.06 613880.45,3276704.06 613828.32,3276703.01 613828.32,3276703.01 613819.77,3276702.81 613819.77,3276702.81 613787.29,3276702.14 613787.29,3276702.14 613764.26,3276701.63 613764.26,3276701.63 613737.76,3276701.18 613737.76,3276701.18 613718.00,3276700.81 613718.00,3276700.81 613689.00,3276700.21 613689.00,3276700.21 613657.94,3276699.70">
        <lane index="0" width="3.66" type="shoulder" disallow="all" />
        <lane index="1" width="3.66" />
        <lane index="2" width="3.66" />
    </edge>
    <edge id="767.0" from="node_455_end" to="node_767_end" numLanes="3" speed="13.89" type="town" shape="614764.77,3276721.05 614746.05,3276720.65 614746.05,3276720.65 614727.95,3276720.38">
        <lane index="0" width="3.66" type="shoulder" disallow="all" />
        <lane index="1" width="3.66" />
        <lane index="2" width="3.66" />
    </edge>
    <edge id="768.0" from="node_767_end" to="node_766_start" numLanes="3" speed="13.89" type="town" shape="614727.95,3276720.38 614722.01,3276720.24 614722.01,3276720.24 614716.07,3276720.08">
        <lane index="0" width="3.66" type="shoulder" disallow="all" />
        <lane index="1" width="3.66" />
        <lane index="2" width="3.66" />
    </edge>