<?xml version='1.0' encoding='utf-8'?>
<nodes>
    <node id="node_441_start" x="616121.9608394774" y="3276875.909180605" type="priority" />
    <node id="node_443_start" x="616823.8874790272" y="3277119.301608254" type="priority" />
    <node id="node_443_end" x="616723.216691662" y="3277084.354768425" type="priority" />
    <node id="node_444_end" x="619678.4665805319" y="3278119.646823218" type="priority" />
    <node id="node_445_end" x="614870.7527580461" y="3276723.10754126" type="priority" />
    <node id="node_446_start" x="619681.5597812149" y="3278109.8800384304" type="priority" />
    <node id="node_447_start" x="617995.929111458" y="3277525.7171211247" type="priority" />
    <node id="node_447_end" x="617933.9092241526" y="3277504.2618722687" type="priority" />
    <node id="node_448_end" x="615822.2038619188" y="3276812.3985801507" type="priority" />
    <node id="node_449_end" x="616208.9689763443" y="3276906.1084037083" type="priority" />
    <node id="node_451_end" x="618560.2555209607" y="3277721.464511146" type="priority" />
    <node id="node_455_end" x="614764.7669955699" y="3276721.0480682757" type="priority" />
    <node id="node_456_end" x="619468.9837922076" y="3278087.8589203265" type="priority" />
    <node id="node_458_start" x="618473.8180805084" y="3277691.4862080486" type="priority" />
    <node id="node_461_end" x="617639.1069612703" y="3277457.6118500126" type="priority" />
    <node id="node_464_start" x="618904.1119665129" y="3277880.3146095164" type="priority" />
    <node id="node_466_start" x="617177.259366414" y="3277294.2326387055" type="priority" />
    <node id="node_474_start" x="618557.5480217321" y="3277728.0335720894" type="priority" />
    <node id="node_474_end" x="618472.7118806454" y="3277694.9776338236" type="priority" />
    <node id="node_475_start" x="616207.9101845246" y="3276909.5985462554" type="priority" />
    <node id="node_475_end" x="616120.0396394951" y="3276882.3813202283" type="priority" />
    <node id="node_476_start" x="614871.2517368409" y="3276730.230868567" type="priority" />
    <node id="node_476_end" x="614764.7277499663" y="3276724.7262299554" type="priority" />
    <node id="node_478_start" x="615448.9934115837" y="3276805.2328944057" type="priority" />
    <node id="node_499_start" x="617994.7439241628" y="3277529.1658661263" type="priority" />
    <node id="node_499_end" x="617931.7000529265" y="3277510.936965372" type="priority" />
    <node id="node_500_start" x="616821.897917342" y="3277126.0476151314" type="priority" />
    <node id="node_500_end" x="616721.9106362937" y="3277087.7525309683" type="priority" />
    <node id="node_505_end" x="612447.6639071925" y="3276676.323580971" type="priority" />
    <node id="node_506_end" x="613563.9413732517" y="3276697.9183075316" type="priority" />
    <node id="node_509_start" x="612447.6339389298" y="3276683.3957245233" type="priority" />
    <node id="node_509_end" x="612296.7652255513" y="3276677.0886565354" type="priority" />
    <node id="node_510_end" x="613563.6343050813" y="3276708.0806000135" type="priority" />
    <node id="node_511_end" x="612296.9611484037" y="3276673.419833352" type="priority" />
    <node id="node_519_end" x="613309.3750258904" y="3276738.4077494047" type="priority" />
    <node id="node_522_start" x="612945.2910434231" y="3276728.950106849" type="priority" />
    <node id="node_766_start" x="614716.0659288423" y="3276720.0753685418" type="priority" />
    <node id="node_767_end" x="614727.9494796386" y="3276720.378880559" type="priority" />
    <node id="junction_63" x="0.0" y="0.0" type="priority" />
    <node id="junction_1" x="0.0" y="0.0" type="priority" />
    <node id="junction_70" x="0.0" y="0.0" type="priority" />
    <node id="junction_2" x="0.0" y="0.0" type="priority" />
    <node id="junction_6" x="0.0" y="0.0" type="priority" />
    <node id="junction_9" x="0.0" y="0.0" type="priority" />
    <node id="junction_64" x="0.0" y="0.0" type="priority" />
    <node id="junction_10" x="0.0" y="0.0" type="priority" />
    <node id="junction_73" x="0.0" y="0.0" type="priority" />
    <node id="junction_11" x="0.0" y="0.0" type="priority" />
    <node id="junction_74" x="0.0" y="0.0" type="priority" />
    <node id="junction_77" x="0.0" y="0.0" type="priority" />
    <node id="junction_75" x="0.0" y="0.0" type="priority" />
    <node id="junction_3" x="0.0" y="0.0" type="priority" />
    <node id="junction_16" x="0.0" y="0.0" type="priority" />
    <node id="junction_78" x="0.0" y="0.0" type="priority" />
    <node id="junction_79" x="0.0" y="0.0" type="priority" />
    <node id="junction_17" x="0.0" y="0.0" type="priority" />
    <node id="junction_19" x="0.0" y="0.0" type="priority" />
    <node id="junction_18" x="0.0" y="0.0" type="priority" />
    <node id="junction_76" x="0.0" y="0.0" type="priority" />
    <node id="junction_12" x="0.0" y="0.0" type="priority" />
    <node id="junction_14" x="0.0" y="0.0" type="priority" />
    <node id="junction_84" x="0.0" y="0.0" type="priority" />
    <node id="junction_65" x="0.0" y="0.0" type="priority" />
    <node id="junction_85" x="0.0" y="0.0" type="priority" />
    <node id="junction_55" x="0.0" y="0.0" type="priority" />
    <node id="junction_86" x="0.0" y="0.0" type="priority" />
    <node id="junction_81" x="0.0" y="0.0" type="priority" />
    <node id="junction_21" x="0.0" y="0.0" type="priority" />
    <node id="junction_82" x="0.0" y="0.0" type="priority" />
    <node id="junction_22" x="0.0" y="0.0" type="priority" />
    <node id="junction_80" x="0.0" y="0.0" type="priority" />
    <node id="junction_20" x="0.0" y="0.0" type="priority" />
    <node id="junction_4" x="0.0" y="0.0" type="priority" />
    <node id="junction_23" x="0.0" y="0.0" type="priority" />
    <node id="junction_83" x="0.0" y="0.0" type="priority" />
    <node id="junction_66" x="0.0" y="0.0" type="priority" />
    <node id="junction_24" x="0.0" y="0.0" type="priority" />
    <node id="junction_88" x="0.0" y="0.0" type="priority" />
    <node id="junction_26" x="0.0" y="0.0" type="priority" />
    <node id="junction_27" x="0.0" y="0.0" type="priority" />
    <node id="junction_28" x="0.0" y="0.0" type="priority" />
    <node id="junction_91" x="0.0" y="0.0" type="priority" />
    <node id="junction_29" x="0.0" y="0.0" type="priority" />
    <node id="junction_92" x="0.0" y="0.0" type="priority" />
    <node id="junction_30" x="0.0" y="0.0" type="priority" />
    <node id="junction_31" x="0.0" y="0.0" type="priority" />
    <node id="junction_32" x="0.0" y="0.0" type="priority" />
    <node id="junction_96" x="0.0" y="0.0" type="priority" />
    <node id="junction_33" x="0.0" y="0.0" type="priority" />
    <node id="junction_98" x="0.0" y="0.0" type="priority" />
    <node id="junction_87" x="0.0" y="0.0" type="priority" />
    <node id="junction_89" x="0.0" y="0.0" type="priority" />
    <node id="junction_90" x="0.0" y="0.0" type="priority" />
    <node id="junction_93" x="0.0" y="0.0" type="priority" />
    <node id="junction_94" x="0.0" y="0.0" type="priority" />
    <node id="junction_95" x="0.0" y="0.0" type="priority" />
    <node id="junction_39" x="0.0" y="0.0" type="priority" />
    <node id="junction_40" x="0.0" y="0.0" type="priority" />
    <node id="junction_102" x="0.0" y="0.0" type="priority" />
    <node id="junction_103" x="0.0" y="0.0" type="priority" />
    <node id="junction_106" x="0.0" y="0.0" type="priority" />
    <node id="junction_42" x="0.0" y="0.0" type="priority" />
    <node id="junction_104" x="0.0" y="0.0" type="priority" />
    <node id="junction_41" x="0.0" y="0.0" type="priority" />
    <node id="junction_43" x="0.0" y="0.0" type="priority" />
    <node id="junction_44" x="0.0" y="0.0" type="priority" />
    <node id="junction_45" x="0.0" y="0.0" type="priority" />
    <node id="junction_108" x="0.0" y="0.0" type="priority" />
    <node id="junction_46" x="0.0" y="0.0" type="priority" />
    <node id="junction_68" x="0.0" y="0.0" type="priority" />
    <node id="junction_47" x="0.0" y="0.0" type="priority" />
    <node id="junction_49" x="0.0" y="0.0" type="priority" />
    <node id="junction_111" x="0.0" y="0.0" type="priority" />
    <node id="junction_112" x="0.0" y="0.0" type="priority" />
    <node id="junction_50" x="0.0" y="0.0" type="priority" />
    <node id="junction_113" x="0.0" y="0.0" type="priority" />
    <node id="junction_52" x="0.0" y="0.0" type="priority" />
    <node id="junction_51" x="0.0" y="0.0" type="priority" />
    <node id="junction_53" x="0.0" y="0.0" type="priority" />
    <node id="junction_116" x="0.0" y="0.0" type="priority" />
    <node id="junction_115" x="0.0" y="0.0" type="priority" />
    <node id="junction_54" x="0.0" y="0.0" type="priority" />
    <node id="junction_48" x="0.0" y="0.0" type="priority" />
    <node id="junction_105" x="0.0" y="0.0" type="priority" />
    <node id="junction_107" x="0.0" y="0.0" type="priority" />
    <node id="junction_109" x="0.0" y="0.0" type="priority" />
    <node id="junction_110" x="0.0" y="0.0" type="priority" />
    <node id="junction_114" x="0.0" y="0.0" type="priority" />
    <node id="junction_13" x="0.0" y="0.0" type="priority" />
    <node id="junction_7" x="0.0" y="0.0" type="priority" />
    <node id="junction_15" x="0.0" y="0.0" type="priority" />
    <node id="junction_119" x="0.0" y="0.0" type="priority" />
    <node id="junction_120" x="0.0" y="0.0" type="priority" />
    <node id="junction_56" x="0.0" y="0.0" type="priority" />
    <node id="junction_118" x="0.0" y="0.0" type="priority" />
    <node id="junction_121" x="0.0" y="0.0" type="priority" />
    <node id="junction_61" x="0.0" y="0.0" type="priority" />
    <node id="junction_122" x="0.0" y="0.0" type="priority" />
    <node id="junction_8" x="0.0" y="0.0" type="priority" />
    <node id="junction_62" x="0.0" y="0.0" type="priority" />
    <node id="junction_71" x="0.0" y="0.0" type="priority" />
    <node id="junction_57" x="0.0" y="0.0" type="priority" />
    <node id="junction_5" x="0.0" y="0.0" type="priority" />
    <node id="junction_123" x="0.0" y="0.0" type="priority" />
    <node id="junction_25" x="0.0" y="0.0" type="priority" />
    <node id="junction_124" x="0.0" y="0.0" type="priority" />
    <node id="junction_58" x="0.0" y="0.0" type="priority" />
    <node id="junction_59" x="0.0" y="0.0" type="priority" />
    <node id="junction_125" x="0.0" y="0.0" type="priority" />
    <node id="junction_126" x="0.0" y="0.0" type="priority" />
    <node id="junction_60" x="0.0" y="0.0" type="priority" />
    <node id="junction_72" x="0.0" y="0.0" type="priority" />
    <node id="junction_127" x="0.0" y="0.0" type="priority" />
    <node id="junction_101" x="609858.4461337547" y="3276250.604830971" type="priority" />
    <node id="junction_38" x="612660.6729200905" y="3276683.9017873704" type="priority" />
    <node id="junction_99" x="615923.509488236" y="3276812.303581783" type="priority" />
    <node id="junction_35" x="615287.6348544577" y="3276734.8994680545" type="priority" />
    <node id="junction_37" x="616923.9838331352" y="3277157.5992361805" type="priority" />
    <node id="junction_117" x="613610.1602654277" y="3276701.165865926" type="priority" />
    <node id="junction_34" x="625318.8682027131" y="3279925.621575588" type="priority" />
    <node id="junction_97" x="619733.2410831689" y="3278130.2717247307" type="priority" />
    <node id="junction_100" x="617904.0677852215" y="3277497.4989261497" type="priority" />
    <node id="junction_36" x="618730.9717534367" y="3277784.156646369" type="priority" />
</nodes>