<?xml version='1.0' encoding='utf-8'?>
<connections>
    <connection from="465.0" to="470.0" fromLane="1" toLane="1" />
    <connection from="465.0" to="470.0" fromLane="2" toLane="2" />
    <connection from="465.0" to="461.0" fromLane="0" toLane="0" />
    <connection from="766.0" to="510.0" fromLane="1" toLane="0" />
    <connection from="766.0" to="506.0" fromLane="2" toLane="1" />
    <connection from="766.0" to="506.0" fromLane="1" toLane="0" />
    <connection from="450.0" to="445.0" fromLane="1" toLane="1" />
    <connection from="450.0" to="445.0" fromLane="2" toLane="2" />
    <connection from="446.0" to="451.0" fromLane="1" toLane="1" />
    <connection from="446.0" to="451.0" fromLane="2" toLane="2" />
    <connection from="470.0" to="473.0" fromLane="1" toLane="1" />
    <connection from="470.0" to="473.0" fromLane="2" toLane="2" />
    <connection from="512.0" to="505.0" fromLane="2" toLane="2" />
    <connection from="512.0" to="505.0" fromLane="1" toLane="1" />
    <connection from="434.0" to="468.0" fromLane="2" toLane="1" />
    <connection from="434.0" to="468.0" fromLane="1" toLane="0" />
    <connection from="434.0" to="444.0" fromLane="1" toLane="0" />
    <connection from="441.0" to="448.0" fromLane="0" toLane="0" />
    <connection from="441.0" to="450.0" fromLane="2" toLane="2" />
    <connection from="441.0" to="450.0" fromLane="1" toLane="1" />
</connections>