<?xml version='1.0' encoding='utf-8'?>
<connections>
    <connection from="229.0" to="merge_zone_17" fromLane="1" toLane="2" />
    <connection from="229.0" to="merge_zone_17" fromLane="0" toLane="1" />
    <connection from="merge_zone_17" to="228.0" fromLane="2" toLane="2" />
    <connection from="merge_zone_17" to="228.0" fromLane="1" toLane="1" />
    <connection from="230.0" to="merge_zone_17" fromLane="0" toLane="0" />
    <connection from="merge_zone_17" to="228.0" fromLane="0" toLane="2" dir="r" state="m" />
    <connection from="323.0" to="324.0" fromLane="2" toLane="2" />
    <connection from="323.0" to="324.0" fromLane="1" toLane="1" />
    <connection from="223.0" to="222.0" fromLane="1" toLane="1" />
    <connection from="223.0" to="222.0" fromLane="2" toLane="2" />
    <connection from="331.0" to="330.0" fromLane="0" toLane="0" />
    <connection from="331.0" to="323.0" fromLane="1" toLane="1" />
    <connection from="331.0" to="323.0" fromLane="2" toLane="2" />
</connections>