<?xml version="1.0" encoding="UTF-8"?>

<!-- generated on 2025-10-19 17:33:42 by Eclipse SUMO netconvert Version 1.23.1
<netconvertConfiguration xmlns:xsi="http://www.w3.org/2001/XMLSchema-instance" xsi:noNamespaceSchemaLocation="http://sumo.dlr.de/xsd/netconvertConfiguration.xsd">

    <input>
        <node-files value="/home/sdai/harry/TeraSim/jupiter/wb/jupiter_wb_tiles/tile_0105/tile_0105.nod.xml"/>
        <edge-files value="/home/sdai/harry/TeraSim/jupiter/wb/jupiter_wb_tiles/tile_0105/tile_0105.edg.xml"/>
        <connection-files value="/home/sdai/harry/TeraSim/jupiter/wb/jupiter_wb_tiles/tile_0105/tile_0105.con.xml"/>
    </input>

    <output>
        <output-file value="/home/sdai/harry/TeraSim/jupiter/wb/jupiter_wb_tiles/tile_0105/tile_0105.net.xml"/>
        <output.street-names value="true"/>
        <output.original-names value="true"/>
    </output>

    <processing>
        <geometry.remove value="false"/>
        <geometry.min-dist value="0.5"/>
        <edges.join value="false"/>
    </processing>

    <junctions>
        <no-internal-links value="false"/>
        <no-turnarounds value="true"/>
        <junctions.join value="true"/>
        <junctions.join-dist value="10"/>
        <junctions.corner-detail value="5"/>
        <junctions.internal-link-detail value="5"/>
        <junctions.limit-turn-speed value="5.5"/>
        <rectangular-lane-cut value="true"/>
        <check-lane-foes.all value="true"/>
    </junctions>

</netconvertConfiguration>
-->

<net version="1.20" junctionCornerDetail="5" junctionLinkDetail="5" rectangularLaneCut="true" limitTurnSpeed="5.50" checkLaneFoesAll="1" xmlns:xsi="http://www.w3.org/2001/XMLSchema-instance" xsi:noNamespaceSchemaLocation="http://sumo.dlr.de/xsd/net_file.xsd">

    <location netOffset="-693750.17,-3286058.79" convBoundary="0.00,0.00,14725.98,1029.11" origBoundary="0.00,0.00,708476.15,3287087.90" projParameter="!"/>

    <edge id=":j_merge_end_17_0" function="internal">
        <lane id=":j_merge_end_17_0_0" index="0" speed="13.89" length="33.45" width="3.66" shape="13953.08,974.17 13943.85,976.23 13936.23,976.11 13928.58,975.90 13919.25,977.68"/>
        <lane id=":j_merge_end_17_0_1" index="1" speed="13.89" length="33.45" width="3.66" shape="13951.83,970.73 13920.38,981.16"/>
        <lane id=":j_merge_end_17_0_2" index="2" speed="13.89" length="33.45" width="3.66" shape="13950.58,967.29 13919.25,977.68"/>
    </edge>
    <edge id=":j_merge_start_17_0" function="internal">
        <lane id=":j_merge_start_17_0_0" index="0" speed="13.89" length="63.66" width="3.66" shape="14065.85,929.47 14007.06,953.91"/>
    </edge>
    <edge id=":j_merge_start_17_1" function="internal">
        <lane id=":j_merge_start_17_1_0" index="0" speed="13.89" length="63.62" width="3.66" shape="14064.52,925.98 14005.75,950.49"/>
        <lane id=":j_merge_start_17_1_1" index="1" speed="13.89" length="63.62" width="3.66" shape="14063.09,922.62 14004.43,947.08"/>
    </edge>
    <edge id=":junction_24_0" function="internal">
        <lane id=":junction_24_0_0" index="0" speed="13.89" length="71.73" width="3.66" shape="8810.63,550.93 8740.84,534.33"/>
    </edge>
    <edge id=":junction_24_1" function="internal">
        <lane id=":junction_24_1_0" index="0" speed="13.89" length="71.92" width="3.66" shape="8812.11,544.62 8741.54,530.74"/>
        <lane id=":junction_24_1_1" index="1" speed="13.89" length="71.92" width="3.66" shape="8812.82,541.03 8742.24,527.15"/>
    </edge>
    <edge id=":junction_79_0" function="internal">
        <lane id=":junction_79_0_0" index="0" speed="13.89" length="31.91" width="3.66" shape="14712.32,647.55 14682.99,660.14"/>
        <lane id=":junction_79_0_1" index="1" speed="13.89" length="31.91" width="3.66" shape="14710.87,644.19 14681.54,656.78"/>
    </edge>
    <edge id=":junction_88_0" function="internal">
        <lane id=":junction_88_0_0" index="0" speed="13.89" length="35.62" width="3.66" shape="9673.01,717.66 9637.63,713.56"/>
    </edge>
    <edge id=":junction_88_1" function="internal">
        <lane id=":junction_88_1_0" index="0" speed="13.89" length="35.90" width="3.66" shape="9673.70,714.07 9638.46,707.19"/>
        <lane id=":junction_88_1_1" index="1" speed="13.89" length="35.90" width="3.66" shape="9674.39,710.48 9639.17,703.60"/>
    </edge>
    <edge id=":node_222_end_0" function="internal">
        <lane id=":node_222_end_0_0" index="0" speed="13.89" length="3.00" width="3.66" shape="14114.25,904.74 14111.49,905.92"/>
        <lane id=":node_222_end_0_1" index="1" speed="13.89" length="3.00" width="3.66" shape="14112.81,901.37 14110.05,902.55"/>
    </edge>
    <edge id=":node_228_end_0" function="internal">
        <lane id=":node_228_end_0_0" index="0" speed="13.89" length="0.30" width="3.66" shape="12830.45,1007.16 12830.15,1007.15"/>
        <lane id=":node_228_end_0_1" index="1" speed="13.89" length="0.30" width="3.66" shape="12830.60,1003.50 12830.30,1003.49"/>
    </edge>
    <edge id=":node_230_start_0" function="internal">
        <lane id=":node_230_start_0_0" index="0" speed="13.89" length="0.10" width="3.66" shape="14115.50,911.65 14115.44,911.67"/>
    </edge>
    <edge id=":node_324_end_0" function="internal">
        <lane id=":node_324_end_0_0" index="0" speed="13.89" length="3.39" width="3.66" shape="8681.22,522.63 8680.27,522.33 8679.68,521.96 8679.08,521.58 8678.14,521.25"/>
    </edge>
    <edge id=":node_324_end_1" function="internal">
        <lane id=":node_324_end_1_0" index="0" speed="13.89" length="2.99" width="3.66" shape="8681.93,519.04 8678.99,518.45"/>
        <lane id=":node_324_end_1_1" index="1" speed="13.89" length="2.99" width="3.66" shape="8682.63,515.44 8679.70,514.86"/>
    </edge>
    <edge id=":node_325_start_0" function="internal">
        <lane id=":node_325_start_0_0" index="0" speed="13.89" length="8.06" width="3.66" shape="8602.77,503.61 8594.90,501.89"/>
    </edge>
    <edge id=":node_325_start_1" function="internal">
        <lane id=":node_325_start_1_0" index="0" speed="13.89" length="7.99" width="3.66" shape="8602.74,503.43 8594.90,501.89"/>
        <lane id=":node_325_start_1_1" index="1" speed="13.89" length="7.99" width="3.66" shape="8603.44,499.84 8595.60,498.29"/>
    </edge>
    <edge id=":node_331_start_0" function="internal">
        <lane id=":node_331_start_0_0" index="0" speed="13.89" length="3.20" width="3.66" shape="9691.73,717.59 9688.59,716.97"/>
        <lane id=":node_331_start_0_1" index="1" speed="13.89" length="3.20" width="3.66" shape="9692.44,714.00 9689.30,713.38"/>
    </edge>
    <edge id=":node_331_start_2" function="internal">
        <lane id=":node_331_start_2_0" index="0" speed="13.89" length="3.13" width="3.66" shape="9691.00,720.82 9687.88,720.56"/>
    </edge>
    <edge id=":node_480_start_0" function="internal">
        <lane id=":node_480_start_0_0" index="0" speed="13.89" length="7.85" width="3.66" shape="9752.23,729.43 9744.50,728.08"/>
    </edge>
    <edge id=":node_480_start_1" function="internal">
        <lane id=":node_480_start_1_0" index="0" speed="13.89" length="8.14" width="3.66" shape="9752.23,729.43 9744.25,727.88"/>
        <lane id=":node_480_start_1_1" index="1" speed="13.89" length="8.14" width="3.66" shape="9752.95,725.84 9744.95,724.28"/>
    </edge>
    <edge id=":node_501_start_0" function="internal">
        <lane id=":node_501_start_0_0" index="0" speed="13.89" length="0.10" width="3.66" shape="12759.42,1004.27 12759.42,1004.27"/>
        <lane id=":node_501_start_0_1" index="1" speed="13.89" length="0.10" width="3.66" shape="12759.57,1000.61 12759.57,1000.61"/>
    </edge>

    <edge id="222.0" from="junction_79" to="node_222_end" priority="-1" type="town" shape="14680.82,655.10 14658.32,664.77 14639.88,672.73 14620.60,681.05 14596.60,691.34 14574.49,700.82 14550.44,711.13 14527.92,720.73 14508.41,729.03 14486.80,738.30 14474.54,743.49 14459.69,749.79 14436.78,759.62 14416.92,768.09 14404.89,773.24 14377.81,784.85 14350.17,796.80 14338.97,801.65 14338.51,801.85 14318.35,810.57 14304.11,816.73 14278.92,827.72 14252.16,839.28 14221.00,852.73 14201.75,861.01 14180.49,870.18 14171.10,874.27 14168.28,875.44 14163.16,877.65 14157.81,879.99 14151.62,882.63 14142.58,886.56 14137.03,888.95 14131.38,891.39 14125.01,894.13 14118.43,896.95 14114.12,898.82 14110.71,900.28">
        <lane id="222.0_0" index="0" disallow="all" speed="13.89" length="619.11" width="3.66" shape="14684.43,663.51 14661.94,673.17 14643.51,681.13 14624.21,689.46 14600.21,699.75 14578.10,709.23 14554.04,719.54 14531.51,729.15 14512.01,737.44 14490.39,746.72 14478.11,751.91 14463.28,758.21 14440.38,768.03 14420.51,776.50 14408.49,781.65 14381.43,793.25 14353.80,805.20 14342.61,810.05 14342.14,810.25 14321.98,818.97 14307.76,825.12 14282.56,836.11 14255.79,847.68 14224.62,861.13 14205.37,869.41 14184.12,878.58 14174.72,882.67 14171.86,883.86 14166.81,886.04 14161.44,888.39 14155.24,891.03 14146.22,894.96 14140.65,897.35 14135.00,899.79 14128.62,902.54 14122.05,905.35 14117.74,907.22 14115.69,908.10" type="shoulder"/>
        <lane id="222.0_1" index="1" speed="13.89" length="619.11" width="3.66" shape="14682.99,660.14 14660.49,669.81 14642.06,677.77 14622.77,686.09 14598.76,696.39 14576.65,705.87 14552.60,716.18 14530.07,725.78 14510.57,734.08 14488.96,743.35 14476.68,748.54 14461.84,754.84 14438.94,764.67 14419.08,773.14 14407.05,778.29 14379.98,789.89 14352.35,801.84 14341.15,806.69 14340.69,806.89 14320.53,815.61 14306.30,821.76 14281.11,832.76 14254.34,844.32 14223.17,857.77 14203.92,866.05 14182.67,875.22 14173.27,879.31 14170.43,880.49 14165.35,882.69 14159.99,885.03 14153.79,887.67 14144.76,891.60 14139.20,893.99 14133.55,896.43 14127.18,899.17 14120.60,901.99 14116.29,903.86 14114.25,904.74"/>
        <lane id="222.0_2" index="2" speed="13.89" length="619.11" width="3.66" shape="14681.54,656.78 14659.04,666.45 14640.61,674.41 14621.32,682.73 14597.32,693.02 14575.21,702.50 14551.16,712.81 14528.64,722.41 14509.13,730.71 14487.52,739.98 14475.25,745.17 14460.41,751.47 14437.50,761.30 14417.64,769.77 14405.61,774.92 14378.53,786.53 14350.90,798.48 14339.70,803.33 14339.24,803.53 14319.08,812.25 14304.84,818.41 14279.65,829.40 14252.89,840.96 14221.72,854.41 14202.47,862.69 14181.22,871.86 14171.82,875.95 14169.00,877.12 14163.89,879.33 14158.54,881.67 14152.35,884.31 14143.31,888.24 14137.75,890.63 14132.10,893.07 14125.73,895.81 14119.15,898.63 14114.85,900.50 14112.81,901.37"/>
    </edge>
    <edge id="223.0" from="node_223_start" to="junction_79" priority="-1" type="town" shape="14725.98,635.67 14725.52,635.87 14710.14,642.51">
        <lane id="223.0_0" index="0" speed="13.89" length="17.27" width="3.66" shape="14729.64,644.06 14729.15,644.27 14713.77,650.91"/>
        <lane id="223.0_1" index="1" speed="13.89" length="17.27" width="3.66" shape="14728.18,640.70 14727.70,640.91 14712.32,647.55"/>
        <lane id="223.0_2" index="2" speed="13.89" length="17.27" width="3.66" shape="14726.71,637.35 14726.25,637.55 14710.87,644.19"/>
    </edge>
    <edge id="228.0" from="j_merge_end_17" to="node_228_end" priority="-1" type="town" shape="13918.69,975.94 13913.63,977.58 13909.48,978.87 13904.41,980.41 13898.95,982.08 13893.68,983.63 13889.57,984.87 13880.10,987.59 13874.66,989.06 13870.12,990.29 13865.98,991.38 13860.31,992.84 13854.51,994.31 13848.83,995.73 13843.50,997.02 13838.60,998.17 13833.06,999.46 13828.64,1000.49 13823.68,1001.67 13819.36,1002.63 13816.22,1003.34 13811.94,1004.25 13806.89,1005.35 13799.19,1006.94 13793.03,1008.16 13787.95,1009.12 13781.86,1010.28 13775.84,1011.34 13770.28,1012.26 13764.80,1013.20 13761.28,1013.73 13756.75,1014.44 13752.81,1015.05 13747.92,1015.76 13742.79,1016.55 13737.91,1017.24 13733.21,1017.91 13727.94,1018.61 13723.03,1019.29 13717.76,1019.99 13713.98,1020.45 13710.37,1020.90 13706.31,1021.41 13701.22,1022.00 13696.22,1022.55 13691.58,1023.01 13686.84,1023.49 13679.91,1024.18 13675.05,1024.61 13670.66,1025.00 13666.13,1025.35 13661.34,1025.74 13655.53,1026.22 13650.48,1026.52 13644.48,1026.96 13639.76,1027.21 13633.59,1027.58 13629.90,1027.81 13625.08,1028.01 13620.19,1028.26 13615.69,1028.39 13611.84,1028.55 13606.93,1028.72 13602.99,1028.82 13598.08,1028.93 13593.88,1029.03 13588.79,1029.08 13583.24,1029.11 13579.02,1029.10 13576.07,1029.10 13572.67,1029.11 13569.00,1029.09 13564.79,1029.02 13560.74,1029.00 13556.46,1028.96 13551.98,1028.88 13543.21,1028.69 13538.23,1028.57 13532.24,1028.44 13527.65,1028.34 13523.82,1028.22 13518.71,1028.14 13514.28,1028.04 13509.28,1027.88 13504.23,1027.76 13500.41,1027.65 13496.38,1027.48 13492.66,1027.36 13487.74,1027.17 13482.07,1026.99 13477.21,1026.81 13473.27,1026.66 13470.57,1026.58 13466.04,1026.41 13461.96,1026.26 13457.72,1026.13 13454.01,1026.00 13450.35,1025.85 13446.55,1025.70 13442.02,1025.54 13439.45,1025.44 13435.47,1025.30 13432.80,1025.20 13429.67,1025.08 13425.92,1024.92 13421.61,1024.76 13417.53,1024.58 13413.89,1024.44 13408.58,1024.23 13403.69,1024.04 13398.64,1023.87 13393.73,1023.67 13389.15,1023.49 13383.30,1023.26 13376.84,1022.99 13371.82,1022.80 13366.43,1022.61 13360.81,1022.38 13353.51,1022.10 13347.14,1021.85 13340.05,1021.54 13333.81,1021.30 13325.95,1021.00 13322.66,1020.86 13317.69,1020.66 13313.20,1020.50 13308.03,1020.28 13303.58,1020.09 13300.78,1019.99 13297.21,1019.85 13293.43,1019.70 13289.30,1019.53 13284.51,1019.35 13281.52,1019.23 13278.28,1019.12 13274.50,1018.96 13270.53,1018.80 13266.57,1018.65 13262.31,1018.49 13259.31,1018.36 13256.52,1018.28 13253.63,1018.14 13250.96,1018.04 13248.07,1017.95 13244.80,1017.83 13241.47,1017.67 13237.71,1017.54 13234.24,1017.39 13231.16,1017.26 13228.40,1017.19 13225.88,1017.10 13222.83,1016.97 13220.19,1016.89 13217.59,1016.77 13214.09,1016.64 13210.80,1016.52 13208.23,1016.44 13204.56,1016.29 13200.75,1016.16 13198.12,1016.08 13195.60,1016.00 13191.92,1015.83 13187.19,1015.71 13183.95,1015.52 13180.64,1015.42 13176.84,1015.26 13173.37,1015.13 13169.09,1014.98 13162.12,1014.70 13158.16,1014.53 13151.11,1014.26 13148.05,1014.15 13144.36,1013.99 13140.94,1013.87 13136.63,1013.69 13129.68,1013.41 13125.62,1013.26 13121.17,1013.08 13115.89,1012.88 13112.07,1012.71 13108.89,1012.59 13105.65,1012.45 13102.19,1012.31 13098.12,1012.17 13095.04,1012.03 13090.63,1011.85 13087.60,1011.74 13085.05,1011.64 13081.53,1011.47 13078.13,1011.36 13074.89,1011.20 13071.47,1011.08 13068.60,1010.97 13066.32,1010.88 13062.72,1010.75 13058.96,1010.61 13055.14,1010.47 13050.54,1010.29 13046.31,1010.15 13043.04,1010.00 13038.60,1009.83 13036.46,1009.74 13033.11,1009.62 13029.72,1009.49 13026.92,1009.38 13022.99,1009.24 13019.11,1009.08 13015.81,1008.95 13012.08,1008.82 13008.06,1008.69 13003.87,1008.52 12999.90,1008.36 12994.61,1008.16 12990.08,1008.01 12985.68,1007.83 12982.84,1007.73 12979.78,1007.61 12976.72,1007.49 12974.15,1007.38 12970.19,1007.23 12965.29,1007.03 12961.01,1006.89 12957.43,1006.75 12953.57,1006.57 12950.10,1006.44 12946.63,1006.30 12943.17,1006.14 12940.59,1006.06 12937.06,1005.92 12933.61,1005.79 12930.44,1005.67 12926.97,1005.58 12923.90,1005.38 12920.00,1005.22 12916.42,1005.09 12913.35,1004.98 12909.59,1004.83 12905.42,1004.65 12901.44,1004.52 12897.89,1004.37 12892.48,1004.15 12887.14,1003.95 12883.30,1003.79 12880.09,1003.67 12876.38,1003.55 12872.81,1003.39 12868.58,1003.23 12864.47,1003.07 12860.21,1002.88 12855.89,1002.72 12853.00,1002.58 12849.79,1002.47 12846.23,1002.32 12841.41,1002.12 12836.60,1001.93 12830.53,1001.67">
        <lane id="228.0_0" index="0" disallow="all" speed="13.89" length="1095.96" width="3.66" shape="13921.51,984.64 13916.40,986.30 13912.17,987.62 13907.08,989.16 13901.58,990.84 13896.29,992.40 13892.15,993.65 13882.58,996.40 13877.05,997.89 13872.48,999.13 13868.28,1000.24 13862.57,1001.71 13856.74,1003.18 13851.02,1004.61 13845.62,1005.92 13840.68,1007.08 13835.14,1008.37 13830.74,1009.40 13825.74,1010.59 13821.36,1011.56 13818.17,1012.28 13813.87,1013.19 13808.78,1014.30 13801.01,1015.91 13794.77,1017.14 13789.66,1018.11 13783.51,1019.28 13777.38,1020.36 13771.80,1021.28 13766.28,1022.23 13762.67,1022.77 13758.16,1023.48 13754.16,1024.10 13749.27,1024.81 13744.13,1025.60 13739.20,1026.30 13734.46,1026.97 13729.17,1027.68 13724.26,1028.36 13718.92,1029.07 13715.10,1029.53 13711.51,1029.98 13707.40,1030.49 13702.25,1031.09 13697.17,1031.65 13692.49,1032.11 13687.75,1032.59 13680.78,1033.29 13675.86,1033.72 13671.42,1034.12 13666.85,1034.47 13662.09,1034.86 13656.18,1035.35 13651.09,1035.65 13645.07,1036.09 13640.28,1036.35 13634.15,1036.71 13630.37,1036.95 13625.50,1037.15 13620.56,1037.40 13616.01,1037.53 13612.18,1037.69 13607.21,1037.87 13603.21,1037.97 13598.29,1038.08 13594.03,1038.18 13588.86,1038.23 13583.26,1038.26 13579.01,1038.25 13576.08,1038.25 13572.66,1038.26 13568.90,1038.24 13564.69,1038.17 13560.67,1038.15 13556.33,1038.11 13551.79,1038.03 13543.00,1037.84 13538.02,1037.72 13532.04,1037.59 13527.41,1037.49 13523.62,1037.37 13518.54,1037.29 13514.03,1037.19 13509.03,1037.03 13503.99,1036.91 13500.08,1036.79 13496.04,1036.62 13492.33,1036.50 13487.42,1036.31 13481.76,1036.13 13476.87,1035.95 13472.95,1035.80 13470.25,1035.72 13465.70,1035.55 13461.65,1035.40 13457.42,1035.28 13453.66,1035.14 13449.98,1034.99 13446.21,1034.84 13441.69,1034.68 13439.12,1034.58 13435.14,1034.44 13432.45,1034.34 13429.30,1034.22 13425.56,1034.06 13421.24,1033.90 13417.15,1033.72 13413.53,1033.58 13408.22,1033.37 13403.36,1033.18 13398.30,1033.01 13393.36,1032.81 13388.79,1032.63 13382.93,1032.40 13376.47,1032.13 13371.49,1031.94 13366.08,1031.75 13360.45,1031.52 13353.16,1031.24 13346.76,1030.99 13339.67,1030.68 13333.46,1030.44 13325.59,1030.14 13322.28,1030.00 13317.34,1029.80 13312.84,1029.64 13307.64,1029.42 13303.21,1029.23 13300.44,1029.13 13296.85,1028.99 13293.06,1028.84 13288.94,1028.67 13284.16,1028.49 13281.18,1028.37 13277.93,1028.26 13274.12,1028.10 13270.17,1027.94 13266.23,1027.79 13261.95,1027.63 13258.98,1027.50 13256.17,1027.42 13253.24,1027.28 13250.65,1027.18 13247.76,1027.09 13244.41,1026.97 13241.10,1026.81 13237.36,1026.68 13233.85,1026.53 13230.85,1026.40 13228.12,1026.34 13225.52,1026.24 13222.49,1026.11 13219.84,1026.03 13217.22,1025.91 13213.75,1025.78 13210.49,1025.66 13207.89,1025.58 13204.22,1025.43 13200.45,1025.31 13197.84,1025.23 13195.23,1025.14 13191.60,1024.97 13186.81,1024.85 13183.55,1024.66 13180.31,1024.56 13176.48,1024.40 13173.04,1024.27 13168.74,1024.12 13161.74,1023.84 13157.79,1023.67 13150.77,1023.40 13147.68,1023.29 13144.00,1023.13 13140.59,1023.01 13136.26,1022.83 13129.32,1022.55 13125.27,1022.40 13120.81,1022.22 13115.52,1022.02 13111.69,1021.85 13108.52,1021.73 13105.27,1021.59 13101.85,1021.45 13097.76,1021.31 13094.65,1021.17 13090.27,1020.99 13087.26,1020.88 13084.64,1020.78 13081.16,1020.61 13077.76,1020.50 13074.51,1020.34 13071.14,1020.22 13068.25,1020.11 13065.98,1020.02 13062.38,1019.89 13058.62,1019.75 13054.79,1019.61 13050.21,1019.43 13045.96,1019.29 13042.66,1019.14 13038.24,1018.97 13036.11,1018.88 13032.77,1018.76 13029.37,1018.63 13026.58,1018.52 13022.64,1018.38 13018.74,1018.22 13015.47,1018.09 13011.77,1017.96 13007.73,1017.83 13003.50,1017.66 12999.54,1017.50 12994.28,1017.30 12989.74,1017.15 12985.33,1016.97 12982.50,1016.87 12979.42,1016.75 12976.35,1016.63 12973.79,1016.52 12969.83,1016.37 12964.95,1016.17 12960.68,1016.03 12957.04,1015.89 12953.18,1015.71 12949.74,1015.58 12946.23,1015.44 12942.81,1015.28 12940.26,1015.20 12936.71,1015.06 12933.27,1014.93 12930.15,1014.82 12926.55,1014.72 12923.43,1014.52 12919.65,1014.36 12916.09,1014.23 12913.00,1014.12 12909.21,1013.97 12905.07,1013.79 12901.10,1013.66 12897.51,1013.51 12892.12,1013.29 12886.78,1013.09 12882.94,1012.93 12879.77,1012.81 12876.03,1012.69 12872.44,1012.53 12868.23,1012.37 12864.09,1012.21 12859.84,1012.02 12855.51,1011.86 12852.63,1011.72 12849.44,1011.61 12845.85,1011.46 12841.04,1011.26 12836.22,1011.07 12830.29,1010.82" type="shoulder"/>
        <lane id="228.0_1" index="1" speed="13.89" length="1095.96" width="3.66" shape="13920.38,981.16 13915.29,982.81 13911.09,984.12 13906.01,985.66 13900.53,987.34 13895.25,988.89 13891.12,990.14 13881.59,992.88 13876.09,994.36 13871.54,995.59 13867.36,996.69 13861.67,998.16 13855.85,999.63 13850.14,1001.06 13844.77,1002.36 13839.85,1003.52 13834.31,1004.81 13829.90,1005.83 13824.91,1007.02 13820.56,1007.99 13817.39,1008.70 13813.10,1009.62 13808.02,1010.72 13800.28,1012.32 13794.08,1013.55 13788.97,1014.51 13782.85,1015.68 13776.77,1016.75 13771.19,1017.67 13765.69,1018.62 13762.12,1019.16 13757.60,1019.86 13753.62,1020.48 13748.73,1021.19 13743.59,1021.98 13738.68,1022.68 13733.96,1023.35 13728.68,1024.05 13723.77,1024.73 13718.46,1025.44 13714.65,1025.90 13711.05,1026.35 13706.97,1026.86 13701.84,1027.46 13696.79,1028.01 13692.13,1028.47 13687.39,1028.95 13680.43,1029.65 13675.54,1030.08 13671.11,1030.47 13666.56,1030.82 13661.79,1031.21 13655.92,1031.70 13650.85,1032.00 13644.83,1032.44 13640.07,1032.69 13633.92,1033.06 13630.18,1033.29 13625.33,1033.49 13620.41,1033.75 13615.88,1033.88 13612.05,1034.04 13607.10,1034.21 13603.12,1034.31 13598.21,1034.42 13593.97,1034.52 13588.83,1034.57 13583.25,1034.60 13579.01,1034.59 13576.08,1034.59 13572.66,1034.60 13568.94,1034.58 13564.73,1034.51 13560.70,1034.49 13556.39,1034.45 13551.87,1034.37 13543.09,1034.18 13538.11,1034.06 13532.12,1033.93 13527.51,1033.83 13523.70,1033.71 13518.61,1033.63 13514.13,1033.53 13509.13,1033.37 13504.09,1033.25 13500.21,1033.14 13496.18,1032.97 13492.46,1032.85 13487.55,1032.66 13481.88,1032.48 13477.00,1032.30 13473.08,1032.15 13470.38,1032.07 13465.84,1031.90 13461.78,1031.75 13457.54,1031.62 13453.80,1031.49 13450.13,1031.34 13446.35,1031.19 13441.82,1031.03 13439.25,1030.93 13435.27,1030.79 13432.59,1030.69 13429.45,1030.57 13425.70,1030.41 13421.39,1030.25 13417.30,1030.07 13413.68,1029.93 13408.37,1029.72 13403.49,1029.53 13398.44,1029.36 13393.51,1029.16 13388.93,1028.98 13383.08,1028.75 13376.62,1028.48 13371.62,1028.29 13366.22,1028.10 13360.59,1027.87 13353.30,1027.59 13346.91,1027.34 13339.82,1027.03 13333.60,1026.79 13325.73,1026.49 13322.43,1026.35 13317.48,1026.15 13312.98,1025.99 13307.80,1025.77 13303.36,1025.58 13300.57,1025.48 13296.99,1025.34 13293.21,1025.19 13289.09,1025.02 13284.30,1024.84 13281.32,1024.72 13278.07,1024.61 13274.27,1024.45 13270.32,1024.29 13266.36,1024.14 13262.09,1023.98 13259.11,1023.85 13256.31,1023.77 13253.39,1023.62 13250.77,1023.53 13247.88,1023.44 13244.57,1023.32 13241.25,1023.16 13237.50,1023.03 13234.01,1022.87 13230.97,1022.75 13228.23,1022.68 13225.66,1022.59 13222.63,1022.46 13219.98,1022.38 13217.37,1022.26 13213.89,1022.13 13210.61,1022.01 13208.03,1021.93 13204.35,1021.78 13200.57,1021.65 13197.95,1021.57 13195.38,1021.49 13191.73,1021.32 13186.96,1021.20 13183.71,1021.00 13180.44,1020.91 13176.62,1020.75 13173.17,1020.62 13168.88,1020.47 13161.89,1020.19 13157.94,1020.02 13150.90,1019.75 13147.83,1019.64 13144.14,1019.48 13140.73,1019.36 13136.41,1019.18 13129.47,1018.90 13125.41,1018.75 13120.96,1018.57 13115.67,1018.37 13111.84,1018.20 13108.67,1018.08 13105.42,1017.94 13101.99,1017.80 13097.91,1017.66 13094.81,1017.51 13090.42,1017.34 13087.39,1017.23 13084.81,1017.12 13081.31,1016.96 13077.91,1016.85 13074.66,1016.69 13071.27,1016.57 13068.39,1016.46 13066.12,1016.37 13062.52,1016.24 13058.76,1016.10 13054.93,1015.96 13050.34,1015.78 13046.10,1015.64 13042.81,1015.49 13038.38,1015.32 13036.25,1015.23 13032.91,1015.11 13029.51,1014.98 13026.72,1014.87 13022.78,1014.73 13018.89,1014.57 13015.61,1014.44 13011.90,1014.31 13007.86,1014.18 13003.65,1014.01 12999.69,1013.85 12994.41,1013.65 12989.88,1013.50 12985.47,1013.32 12982.64,1013.22 12979.57,1013.10 12976.50,1012.98 12973.93,1012.87 12969.97,1012.72 12965.09,1012.52 12960.81,1012.38 12957.19,1012.23 12953.34,1012.06 12949.89,1011.93 12946.39,1011.78 12942.95,1011.63 12940.39,1011.55 12936.85,1011.41 12933.40,1011.28 12930.27,1011.16 12926.72,1011.07 12923.62,1010.86 12919.79,1010.71 12916.22,1010.58 12913.14,1010.47 12909.36,1010.32 12905.21,1010.14 12901.24,1010.01 12897.66,1009.86 12892.27,1009.64 12886.93,1009.44 12883.08,1009.28 12879.90,1009.16 12876.17,1009.04 12872.59,1008.88 12868.37,1008.72 12864.24,1008.56 12859.99,1008.37 12855.66,1008.21 12852.78,1008.07 12849.58,1007.96 12846.00,1007.81 12841.19,1007.61 12836.37,1007.42 12830.45,1007.16"/>
        <lane id="228.0_2" index="2" speed="13.89" length="1095.96" width="3.66" shape="13919.25,977.68 13914.19,979.32 13910.02,980.62 13904.94,982.16 13899.48,983.83 13894.20,985.38 13890.09,986.63 13880.60,989.35 13875.14,990.83 13870.59,992.06 13866.44,993.15 13860.76,994.61 13854.96,996.08 13849.27,997.51 13843.92,998.80 13839.02,999.95 13833.48,1001.24 13829.06,1002.27 13824.09,1003.45 13819.76,1004.42 13816.61,1005.13 13812.33,1006.04 13807.27,1007.14 13799.55,1008.73 13793.38,1009.96 13788.29,1010.92 13782.19,1012.08 13776.15,1013.14 13770.58,1014.06 13765.10,1015.01 13761.56,1015.54 13757.03,1016.25 13753.08,1016.86 13748.19,1017.57 13743.06,1018.36 13738.17,1019.05 13733.46,1019.72 13728.19,1020.42 13723.28,1021.10 13717.99,1021.81 13714.20,1022.27 13710.60,1022.72 13706.53,1023.23 13701.43,1023.82 13696.41,1024.37 13691.76,1024.83 13687.02,1025.31 13680.08,1026.00 13675.21,1026.43 13670.81,1026.82 13666.28,1027.17 13661.49,1027.56 13655.66,1028.05 13650.60,1028.35 13644.60,1028.79 13639.86,1029.04 13633.70,1029.41 13630.00,1029.64 13625.17,1029.84 13620.26,1030.09 13615.75,1030.22 13611.91,1030.38 13606.99,1030.55 13603.03,1030.65 13598.12,1030.76 13593.91,1030.86 13588.80,1030.91 13583.24,1030.94 13579.02,1030.93 13576.07,1030.93 13572.67,1030.94 13568.98,1030.92 13564.77,1030.85 13560.73,1030.83 13556.44,1030.79 13551.94,1030.71 13543.17,1030.52 13538.19,1030.40 13532.20,1030.27 13527.60,1030.17 13523.78,1030.05 13518.68,1029.97 13514.23,1029.87 13509.23,1029.71 13504.18,1029.59 13500.35,1029.48 13496.31,1029.31 13492.59,1029.19 13487.68,1029.00 13482.01,1028.82 13477.14,1028.64 13473.21,1028.49 13470.51,1028.41 13465.97,1028.24 13461.90,1028.09 13457.66,1027.96 13453.94,1027.83 13450.28,1027.68 13446.48,1027.53 13441.95,1027.37 13439.38,1027.27 13435.40,1027.13 13432.73,1027.03 13429.60,1026.91 13425.85,1026.75 13421.54,1026.59 13417.45,1026.41 13413.82,1026.27 13408.51,1026.06 13403.62,1025.87 13398.57,1025.70 13393.66,1025.50 13389.08,1025.32 13383.23,1025.09 13376.77,1024.82 13371.75,1024.63 13366.36,1024.44 13360.74,1024.21 13353.44,1023.93 13347.06,1023.68 13339.97,1023.37 13333.74,1023.13 13325.88,1022.83 13322.59,1022.69 13317.62,1022.49 13313.13,1022.33 13307.95,1022.11 13303.51,1021.92 13300.71,1021.82 13297.14,1021.68 13293.36,1021.53 13289.23,1021.36 13284.44,1021.18 13281.45,1021.06 13278.21,1020.95 13274.42,1020.79 13270.46,1020.63 13266.50,1020.48 13262.24,1020.32 13259.24,1020.19 13256.45,1020.11 13253.55,1019.97 13250.90,1019.87 13248.01,1019.78 13244.72,1019.66 13241.40,1019.50 13237.64,1019.37 13234.16,1019.22 13231.10,1019.09 13228.34,1019.02 13225.81,1018.93 13222.76,1018.80 13220.12,1018.72 13217.52,1018.60 13214.02,1018.47 13210.74,1018.35 13208.16,1018.27 13204.49,1018.12 13200.69,1017.99 13198.06,1017.91 13195.53,1017.83 13191.86,1017.66 13187.11,1017.54 13183.87,1017.35 13180.57,1017.25 13176.77,1017.09 13173.30,1016.96 13169.02,1016.81 13162.05,1016.53 13158.09,1016.36 13151.04,1016.09 13147.98,1015.98 13144.29,1015.82 13140.87,1015.70 13136.56,1015.52 13129.61,1015.24 13125.55,1015.09 13121.10,1014.91 13115.82,1014.71 13111.99,1014.54 13108.82,1014.42 13105.57,1014.28 13102.12,1014.14 13098.05,1014.00 13094.96,1013.86 13090.56,1013.68 13087.53,1013.57 13084.97,1013.47 13081.46,1013.30 13078.06,1013.19 13074.81,1013.03 13071.40,1012.91 13068.53,1012.80 13066.25,1012.71 13062.65,1012.58 13058.89,1012.44 13055.07,1012.30 13050.47,1012.12 13046.24,1011.98 13042.96,1011.83 13038.53,1011.66 13036.39,1011.57 13033.04,1011.45 13029.65,1011.32 13026.85,1011.21 13022.92,1011.07 13019.04,1010.91 13015.74,1010.78 13012.02,1010.65 13007.99,1010.52 13003.80,1010.35 12999.83,1010.19 12994.55,1009.99 12990.01,1009.84 12985.61,1009.66 12982.77,1009.56 12979.71,1009.44 12976.65,1009.32 12974.08,1009.21 12970.12,1009.06 12965.22,1008.86 12960.95,1008.72 12957.35,1008.58 12953.49,1008.40 12950.03,1008.27 12946.55,1008.13 12943.10,1007.97 12940.52,1007.89 12936.99,1007.75 12933.54,1007.62 12930.38,1007.50 12926.89,1007.41 12923.81,1007.21 12919.93,1007.05 12916.35,1006.92 12913.28,1006.81 12909.51,1006.66 12905.35,1006.48 12901.37,1006.35 12897.81,1006.20 12892.41,1005.98 12887.07,1005.78 12883.23,1005.62 12880.03,1005.50 12876.31,1005.38 12872.74,1005.22 12868.51,1005.06 12864.39,1004.90 12860.14,1004.71 12855.81,1004.55 12852.93,1004.41 12849.72,1004.30 12846.15,1004.15 12841.34,1003.95 12836.52,1003.76 12830.60,1003.50"/>
    </edge>
    <edge id="229.0" from="node_222_end" to="j_merge_start_17" priority="-1" type="town" shape="14110.71,900.28 14099.46,905.08 14088.17,909.91 14072.70,916.52 14059.50,922.16">
        <lane id="229.0_0" index="0" speed="13.89" length="51.07" width="3.66" shape="14111.49,905.92 14101.62,910.13 14090.33,914.96 14074.86,921.57 14064.52,925.98"/>
        <lane id="229.0_1" index="1" speed="13.89" length="51.07" width="3.66" shape="14110.05,902.55 14100.18,906.76 14088.89,911.59 14073.42,918.20 14063.09,922.62"/>
    </edge>
    <edge id="230.0" from="node_230_start" to="j_merge_start_17" priority="-1" type="town" shape="14114.84,909.94 14111.15,911.21 14106.35,912.92 14101.36,914.73 14095.30,916.91 14090.56,918.61 14084.44,920.81 14079.46,922.58 14073.89,924.60 14068.67,926.47 14065.37,927.69 14063.24,928.49 14062.31,928.82">
        <lane id="230.0_0" index="0" speed="13.89" length="52.68" width="3.66" shape="14115.44,911.67 14111.76,912.94 14106.97,914.64 14101.98,916.45 14095.92,918.63 14091.18,920.33 14085.06,922.53 14080.08,924.30 14074.51,926.32 14069.29,928.19 14066.01,929.41 14065.85,929.47"/>
    </edge>