<?xml version='1.0' encoding='utf-8'?>
<edges>
    <edge id="222.0" from="junction_79" to="node_222_end" numLanes="3" speed="13.89" type="town" shape="708430.99,3286713.89 708408.49,3286723.56 708408.49,3286723.56 708390.05,3286731.52 708390.05,3286731.52 708370.77,3286739.84 708370.77,3286739.84 708346.77,3286750.13 708346.77,3286750.13 708324.66,3286759.61 708324.66,3286759.61 708300.61,3286769.92 708300.61,3286769.92 708278.09,3286779.52 708278.09,3286779.52 708258.58,3286787.82 708258.58,3286787.82 708236.97,3286797.09 708236.97,3286797.09 708224.71,3286802.28 708224.71,3286802.28 708209.86,3286808.58 708209.86,3286808.58 708186.95,3286818.41 708186.95,3286818.41 708167.09,3286826.88 708167.09,3286826.88 708155.06,3286832.03 708155.06,3286832.03 708127.98,3286843.64 708127.98,3286843.64 708100.34,3286855.59 708100.34,3286855.59 708089.03,3286860.49 708089.03,3286860.49 708088.68,3286860.64 708088.68,3286860.64 708068.52,3286869.36 708068.52,3286869.36 708054.28,3286875.52 708054.28,3286875.52 708029.09,3286886.51 708029.09,3286886.51 708002.33,3286898.07 708002.33,3286898.07 707971.17,3286911.52 707971.17,3286911.52 707951.92,3286919.80 707951.92,3286919.80 707930.66,3286928.97 707930.66,3286928.97 707921.27,3286933.06 707921.27,3286933.06 707918.45,3286934.23 707918.45,3286934.23 707913.33,3286936.44 707913.33,3286936.44 707907.98,3286938.78 707907.98,3286938.78 707901.79,3286941.42 707901.79,3286941.42 707892.75,3286945.35 707892.75,3286945.35 707887.20,3286947.74 707887.20,3286947.74 707881.55,3286950.18 707881.55,3286950.18 707875.18,3286952.92 707875.18,3286952.92 707868.60,3286955.74 707868.60,3286955.74 707864.29,3286957.61 707864.29,3286957.61 707860.88,3286959.07">
        <lane index="0" width="3.66" type="shoulder" disallow="all" />
        <lane index="1" width="3.66" />
        <lane index="2" width="3.66" />
    </edge>
    <edge id="228.0" from="j_merge_end_17" to="node_228_end" numLanes="3" speed="13.89" type="town" shape="707668.86,3287034.73 707663.80,3287036.37 707663.80,3287036.37 707659.65,3287037.66 707659.65,3287037.66 707654.58,3287039.20 707654.58,3287039.20 707649.12,3287040.87 707649.12,3287040.87 707643.85,3287042.42 707643.85,3287042.42 707639.74,3287043.66 707639.74,3287043.66 707630.27,3287046.38 707630.27,3287046.38 707624.83,3287047.85 707624.83,3287047.85 707620.29,3287049.08 707620.29,3287049.08 707616.15,3287050.17 707616.15,3287050.17 707610.48,3287051.63 707610.48,3287051.63 707604.68,3287053.10 707604.68,3287053.10 707599.00,3287054.52 707599.00,3287054.52 707593.67,3287055.81 707593.67,3287055.81 707588.77,3287056.96 707588.77,3287056.96 707583.23,3287058.25 707583.23,3287058.25 707578.81,3287059.28 707578.81,3287059.28 707573.85,3287060.46 707573.85,3287060.46 707569.53,3287061.42 707569.53,3287061.42 707566.39,3287062.13 707566.39,3287062.13 707562.11,3287063.04 707562.11,3287063.04 707557.06,3287064.14 707557.06,3287064.14 707549.36,3287065.73 707549.36,3287065.73 707543.20,3287066.95 707543.20,3287066.95 707538.12,3287067.91 707538.12,3287067.91 707532.03,3287069.07 707532.03,3287069.07 707526.01,3287070.13 707526.01,3287070.13 707520.45,3287071.05 707520.45,3287071.05 707514.97,3287071.99 707514.97,3287071.99 707511.45,3287072.52 707511.45,3287072.52 707506.92,3287073.23 707506.92,3287073.23 707502.98,3287073.84 707502.98,3287073.84 707498.09,3287074.55 707498.09,3287074.55 707492.96,3287075.34 707492.96,3287075.34 707488.08,3287076.03 707488.08,3287076.03 707483.38,3287076.70 707483.38,3287076.70 707478.11,3287077.40 707478.11,3287077.40 707473.20,3287078.08 707473.20,3287078.08 707467.93,3287078.78 707467.93,3287078.78 707464.15,3287079.24 707464.15,3287079.24 707460.54,3287079.69 707460.54,3287079.69 707456.48,3287080.20 707456.48,3287080.20 707451.39,3287080.79 707451.39,3287080.79 707446.39,3287081.34 707446.39,3287081.34 707441.75,3287081.80 707441.75,3287081.80 707437.01,3287082.28 707437.01,3287082.28 707430.08,3287082.97 707430.08,3287082.97 707425.22,3287083.40 707425.22,3287083.40 707420.83,3287083.79 707420.83,3287083.79 707416.30,3287084.14 707416.30,3287084.14 707411.51,3287084.53 707411.51,3287084.53 707405.70,3287085.01 707405.70,3287085.01 707400.65,3287085.31 707400.65,3287085.31 707394.65,3287085.75 707394.65,3287085.75 707389.93,3287086.00 707389.93,3287086.00 707383.76,3287086.37 707383.76,3287086.37 707380.07,3287086.60 707380.07,3287086.60 707375.25,3287086.80 707375.25,3287086.80 707370.36,3287087.05 707370.36,3287087.05 707365.86,3287087.18 707365.86,3287087.18 707362.01,3287087.34 707362.01,3287087.34 707357.10,3287087.51 707357.10,3287087.51 707353.16,3287087.61 707353.16,3287087.61 707348.25,3287087.72 707348.25,3287087.72 707344.05,3287087.82 707344.05,3287087.82 707338.96,3287087.87 707338.96,3287087.87 707333.41,3287087.90 707333.41,3287087.90 707329.19,3287087.89 707329.19,3287087.89 707326.24,3287087.89 707326.24,3287087.89 707322.84,3287087.90 707322.84,3287087.90 707319.17,3287087.88 707319.17,3287087.88 707314.96,3287087.81 707314.96,3287087.81 707310.91,3287087.79 707310.91,3287087.79 707306.63,3287087.75 707306.63,3287087.75 707302.15,3287087.67 707302.15,3287087.67 707293.38,3287087.48 707293.38,3287087.48 707288.40,3287087.36 707288.40,3287087.36 707282.41,3287087.23 707282.41,3287087.23 707277.82,3287087.13 707277.82,3287087.13 707273.99,3287087.01 707273.99,3287087.01 707268.88,3287086.93 707268.88,3287086.93 707264.45,3287086.83 707264.45,3287086.83 707259.45,3287086.67 707259.45,3287086.67 707254.40,3287086.55 707254.40,3287086.55 707250.58,3287086.44 707250.58,3287086.44 707246.55,3287086.27 707246.55,3287086.27 707242.83,3287086.15 707242.83,3287086.15 707237.91,3287085.96 707237.91,3287085.96 707232.24,3287085.78 707232.24,3287085.78 707227.38,3287085.60 707227.38,3287085.60 707223.44,3287085.45 707223.44,3287085.45 707220.74,3287085.37 707220.74,3287085.37 707216.21,3287085.20 707216.21,3287085.20 707212.13,3287085.05 707212.13,3287085.05 707207.89,3287084.92 707207.89,3287084.92 707204.18,3287084.79 707204.18,3287084.79 707200.52,3287084.64 707200.52,3287084.64 707196.72,3287084.49 707196.72,3287084.49 707192.19,3287084.33 707192.19,3287084.33 707189.62,3287084.23 707189.62,3287084.23 707185.64,3287084.09 707185.64,3287084.09 707182.97,3287083.99 707182.97,3287083.99 707179.84,3287083.87 707179.84,3287083.87 707176.09,3287083.71 707176.09,3287083.71 707171.78,3287083.55 707171.78,3287083.55 707167.70,3287083.37 707167.70,3287083.37 707164.06,3287083.23 707164.06,3287083.23 707158.75,3287083.02 707158.75,3287083.02 707153.86,3287082.83 707153.86,3287082.83 707148.81,3287082.66 707148.81,3287082.66 707143.90,3287082.46 707143.90,3287082.46 707139.32,3287082.28 707139.32,3287082.28 707133.47,3287082.05 707133.47,3287082.05 707127.01,3287081.78 707127.01,3287081.78 707121.99,3287081.59 707121.99,3287081.59 707116.60,3287081.40 707116.60,3287081.40 707110.98,3287081.17 707110.98,3287081.17 707103.68,3287080.89 707103.68,3287080.89 707097.31,3287080.64 707097.31,3287080.64 707090.22,3287080.33 707090.22,3287080.33 707083.98,3287080.09 707083.98,3287080.09 707076.12,3287079.79 707076.12,3287079.79 707072.83,3287079.65 707072.83,3287079.65 707067.86,3287079.45 707067.86,3287079.45 707063.37,3287079.29 707063.37,3287079.29 707058.20,3287079.07 707058.20,3287079.07 707053.75,3287078.88 707053.75,3287078.88 707050.95,3287078.78 707050.95,3287078.78 707047.38,3287078.64 707047.38,3287078.64 707043.60,3287078.49 707043.60,3287078.49 707039.47,3287078.32 707039.47,3287078.32 707034.68,3287078.14 707034.68,3287078.14 707031.69,3287078.02 707031.69,3287078.02 707028.45,3287077.91 707028.45,3287077.91 707024.67,3287077.75 707024.67,3287077.75 707020.70,3287077.59 707020.70,3287077.59 707016.74,3287077.44 707016.74,3287077.44 707012.48,3287077.28 707012.48,3287077.28 707009.48,3287077.15 707009.48,3287077.15 707006.69,3287077.07 707006.69,3287077.07 707003.80,3287076.93 707003.80,3287076.93 707001.13,3287076.83 707001.13,3287076.83 706998.24,3287076.74 706998.24,3287076.74 706994.97,3287076.62 706994.97,3287076.62 706991.64,3287076.46 706991.64,3287076.46 706987.88,3287076.33 706987.88,3287076.33 706984.41,3287076.18 706984.41,3287076.18 706981.33,3287076.05 706981.33,3287076.05 706978.57,3287075.98 706978.57,3287075.98 706976.05,3287075.89 706976.05,3287075.89 706973.00,3287075.76 706973.00,3287075.76 706970.36,3287075.68 706970.36,3287075.68 706967.76,3287075.56 706967.76,3287075.56 706964.26,3287075.43 706964.26,3287075.43 706960.97,3287075.31 706960.97,3287075.31 706958.40,3287075.23 706958.40,3287075.23 706954.73,3287075.08 706954.73,3287075.08 706950.92,3287074.95 706950.92,3287074.95 706948.29,3287074.87 706948.29,3287074.87 706945.77,3287074.79 706945.77,3287074.79 706942.09,3287074.62 706942.09,3287074.62 706937.36,3287074.50 706937.36,3287074.50 706934.12,3287074.31 706934.12,3287074.31 706930.81,3287074.21 706930.81,3287074.21 706927.01,3287074.05 706927.01,3287074.05 706923.54,3287073.92 706923.54,3287073.92 706919.26,3287073.77 706919.26,3287073.77 706912.29,3287073.49 706912.29,3287073.49 706908.33,3287073.32 706908.33,3287073.32 706901.28,3287073.05 706901.28,3287073.05 706898.22,3287072.94 706898.22,3287072.94 706894.53,3287072.78 706894.53,3287072.78 706891.11,3287072.66 706891.11,3287072.66 706886.80,3287072.48 706886.80,3287072.48 706879.85,3287072.20 706879.85,3287072.20 706875.79,3287072.05 706875.79,3287072.05 706871.34,3287071.87 706871.34,3287071.87 706866.06,3287071.67 706866.06,3287071.67 706862.24,3287071.50 706862.24,3287071.50 706859.06,3287071.38 706859.06,3287071.38 706855.82,3287071.24 706855.82,3287071.24 706852.36,3287071.10 706852.36,3287071.10 706848.29,3287070.96 706848.29,3287070.96 706845.21,3287070.82 706845.21,3287070.82 706840.80,3287070.64 706840.80,3287070.64 706837.77,3287070.53 706837.77,3287070.53 706835.22,3287070.43 706835.22,3287070.43 706831.70,3287070.26 706831.70,3287070.26 706828.30,3287070.15 706828.30,3287070.15 706825.06,3287069.99 706825.06,3287069.99 706821.64,3287069.87 706821.64,3287069.87 706818.77,3287069.76 706818.77,3287069.76 706816.49,3287069.67 706816.49,3287069.67 706812.89,3287069.54 706812.89,3287069.54 706809.13,3287069.40 706809.13,3287069.40 706805.31,3287069.26 706805.31,3287069.26 706800.71,3287069.08 706800.71,3287069.08 706796.48,3287068.94 706796.48,3287068.94 706793.21,3287068.79 706793.21,3287068.79 706788.77,3287068.62 706788.77,3287068.62 706786.63,3287068.53 706786.63,3287068.53 706783.28,3287068.41 706783.28,3287068.41 706779.89,3287068.28 706779.89,3287068.28 706777.09,3287068.17 706777.09,3287068.17 706773.16,3287068.03 706773.16,3287068.03 706769.28,3287067.87 706769.28,3287067.87 706765.98,3287067.74 706765.98,3287067.74 706762.25,3287067.61 706762.25,3287067.61 706758.23,3287067.48 706758.23,3287067.48 706754.04,3287067.31 706754.04,3287067.31 706750.07,3287067.15 706750.07,3287067.15 706744.78,3287066.95 706744.78,3287066.95 706740.25,3287066.80 706740.25,3287066.80 706735.85,3287066.62 706735.85,3287066.62 706733.01,3287066.52 706733.01,3287066.52 706729.95,3287066.40 706729.95,3287066.40 706726.89,3287066.28 706726.89,3287066.28 706724.32,3287066.17 706724.32,3287066.17 706720.36,3287066.02 706720.36,3287066.02 706715.46,3287065.82 706715.46,3287065.82 706711.18,3287065.68 706711.18,3287065.68 706707.60,3287065.54 706707.60,3287065.54 706703.74,3287065.36 706703.74,3287065.36 706700.27,3287065.23 706700.27,3287065.23 706696.80,3287065.09 706696.80,3287065.09 706693.34,3287064.93 706693.34,3287064.93 706690.76,3287064.85 706690.76,3287064.85 706687.23,3287064.71 706687.23,3287064.71 706683.78,3287064.58 706683.78,3287064.58 706680.61,3287064.46 706680.61,3287064.46 706677.14,3287064.37 706677.14,3287064.37 706674.07,3287064.17 706674.07,3287064.17 706670.17,3287064.01 706670.17,3287064.01 706666.59,3287063.88 706666.59,3287063.88 706663.52,3287063.77 706663.52,3287063.77 706659.76,3287063.62 706659.76,3287063.62 706655.59,3287063.44 706655.59,3287063.44 706651.61,3287063.31 706651.61,3287063.31 706648.06,3287063.16 706648.06,3287063.16 706642.65,3287062.94 706642.65,3287062.94 706637.31,3287062.74 706637.31,3287062.74 706633.47,3287062.58 706633.47,3287062.58 706630.26,3287062.46 706630.26,3287062.46 706626.55,3287062.34 706626.55,3287062.34 706622.98,3287062.18 706622.98,3287062.18 706618.75,3287062.02 706618.75,3287062.02 706614.64,3287061.86 706614.64,3287061.86 706610.38,3287061.67 706610.38,3287061.67 706606.06,3287061.51 706606.06,3287061.51 706603.17,3287061.37 706603.17,3287061.37 706599.96,3287061.26 706599.96,3287061.26 706596.40,3287061.11 706596.40,3287061.11 706591.58,3287060.91 706591.58,3287060.91 706586.77,3287060.72 706586.77,3287060.72 706580.70,3287060.46">
        <lane index="0" width="3.66" type="shoulder" disallow="all" />
        <lane index="1" width="3.66" />
        <lane index="2" width="3.66" />
    </edge>
    <edge id="229.0" from="node_222_end" to="j_merge_start_17" numLanes="2" speed="13.89" type="town" shape="707860.88,3286959.07 707849.63,3286963.87 707849.63,3286963.87 707838.34,3286968.70 707838.34,3286968.70 707822.87,3286975.31 707822.87,3286975.31 707809.67,3286980.95">
        <lane index="0" width="3.66" />
        <lane index="1" width="3.66" />
    </edge>
    <edge id="230.0" from="node_230_start" to="j_merge_start_17" numLanes="1" speed="13.89" type="town" shape="707865.01,3286968.73 707861.32,3286970.00 707861.32,3286970.00 707856.52,3286971.71 707856.52,3286971.71 707851.53,3286973.52 707851.53,3286973.52 707845.47,3286975.70 707845.47,3286975.70 707840.73,3286977.40 707840.73,3286977.40 707834.61,3286979.60 707834.61,3286979.60 707829.63,3286981.37 707829.63,3286981.37 707824.06,3286983.39 707824.06,3286983.39 707818.84,3286985.26 707818.84,3286985.26 707815.54,3286986.48 707815.54,3286986.48 707813.41,3286987.28 707813.41,3286987.28 707812.48,3286987.61">
        <lane index="0" width="3.66" />
    </edge>
    <edge id="231.0" from="node_231_start" to="node_230_start" numLanes="1" speed="13.89" type="town" shape="708073.75,3286917.20 708010.11,3286928.48 708010.11,3286928.48 707955.69,3286940.37 707955.69,3286940.37 707945.76,3286942.79 707945.76,3286942.79 707935.78,3286945.50 707935.78,3286945.50 707930.82,3286946.93 707930.82,3286946.93 707926.68,3286948.10 707926.68,3286948.10 707922.57,3286949.39 707922.57,3286949.39 707916.55,3286951.21 707916.55,3286951.21 707910.69,3286953.07 707910.69,3286953.07 707903.25,3286955.46 707903.25,3286955.46 707895.20,3286958.18 707895.20,3286958.18 707890.59,3286959.78 707890.59,3286959.78 707880.79,3286963.12 707880.79,3286963.12 707872.77,3286965.93 707872.77,3286965.93 707866.57,3286968.13 707866.57,3286968.13 707865.01,3286968.73">
        <lane index="0" width="3.66" />
    </edge>
    <edge id="321.0" from="node_324_end" to="node_325_start" numLanes="1" speed="13.89" type="town" shape="702430.43,3286578.66 702349.33,3286559.68">
        <lane index="0" width="3.66" />
    </edge>
    <edge id="323.0" from="junction_88" to="junction_24" numLanes="3" speed="13.89" type="town" shape="703389.69,3286760.59 703373.81,3286757.45 703373.81,3286757.45 703353.65,3286753.46 703353.65,3286753.46 703329.96,3286748.78 703329.96,3286748.78 703308.22,3286744.48 703308.22,3286744.48 703273.50,3286737.57 703273.50,3286737.57 703252.32,3286733.38 703252.32,3286733.38 703229.61,3286728.90 703229.61,3286728.90 703199.06,3286722.96 703199.06,3286722.96 703159.98,3286715.43 703159.98,3286715.43 703127.50,3286708.98 703127.50,3286708.98 703076.60,3286698.94 703076.60,3286698.94 703056.76,3286695.01 703056.76,3286695.01 703042.30,3286692.15 703042.30,3286692.15 703019.49,3286687.67 703019.49,3286687.67 702997.71,3286683.37 702997.71,3286683.37 702971.73,3286678.21 702971.73,3286678.21 702944.45,3286672.77 702944.45,3286672.77 702923.32,3286668.66 702923.32,3286668.66 702901.34,3286664.33 702901.34,3286664.33 702872.42,3286658.72 702872.42,3286658.72 702859.68,3286656.23 702859.68,3286656.23 702837.57,3286651.93 702837.57,3286651.93 702810.66,3286646.67 702810.66,3286646.67 702784.96,3286641.54 702784.96,3286641.54 702767.85,3286638.15 702767.85,3286638.15 702753.22,3286635.29 702753.22,3286635.29 702724.91,3286629.74 702724.91,3286629.74 702705.61,3286625.92 702705.61,3286625.92 702685.44,3286621.99 702685.44,3286621.99 702656.56,3286616.36 702656.56,3286616.36 702624.52,3286610.01 702624.52,3286610.01 702591.77,3286603.60 702591.77,3286603.60 702563.34,3286598.02">
        <lane index="0" width="3.66" type="shoulder" disallow="all" />
        <lane index="1" width="3.66" />
        <lane index="2" width="3.66" />
    </edge>
    <edge id="324.0" from="junction_24" to="node_324_end" numLanes="3" speed="13.89" type="town" shape="702492.76,3286584.14 702481.49,3286581.95 702481.49,3286581.95 702470.37,3286579.72 702470.37,3286579.72 702453.25,3286576.39 702453.25,3286576.39 702431.64,3286572.14">
        <lane index="0" width="3.66" />
        <lane index="1" width="3.66" />
        <lane index="2" width="3.66" />
    </edge>
    <edge id="325.0" from="node_325_start" to="junction_87" numLanes="3" speed="13.89" type="town" shape="702350.03,3286556.06 702346.44,3286555.35 702346.44,3286555.35 702314.70,3286549.14 702314.70,3286549.14 702287.50,3286543.78 702287.50,3286543.78 702264.18,3286539.28 702264.18,3286539.28 702225.46,3286531.70 702225.46,3286531.70 702207.78,3286528.17 702207.78,3286528.17 702187.90,3286524.25 702187.90,3286524.25 702154.90,3286517.79 702154.90,3286517.79 702126.18,3286512.16 702126.18,3286512.16 702098.20,3286506.64 702098.20,3286506.64 702073.77,3286501.85 702073.77,3286501.85 702047.62,3286496.74 702047.62,3286496.74 702024.33,3286492.14 702024.33,3286492.14 702002.61,3286487.87 702002.61,3286487.87 701980.77,3286483.61 701980.77,3286483.61 701958.20,3286479.15 701958.20,3286479.15 701933.07,3286474.19 701933.07,3286474.19 701913.42,3286470.29 701913.42,3286470.29 701894.90,3286466.65 701894.90,3286466.65 701876.23,3286462.96 701876.23,3286462.96 701854.16,3286458.59 701854.16,3286458.59 701832.41,3286454.31 701832.41,3286454.31 701806.78,3286449.27 701806.78,3286449.27 701785.95,3286445.21 701785.95,3286445.21 701763.05,3286440.68 701763.05,3286440.68 701740.81,3286436.30 701740.81,3286436.30 701721.41,3286432.51 701721.41,3286432.51 701697.55,3286427.84 701697.55,3286427.84 701678.19,3286424.06 701678.19,3286424.06 701656.54,3286419.82 701656.54,3286419.82 701633.65,3286415.35 701633.65,3286415.35 701610.33,3286410.77 701610.33,3286410.77 701584.69,3286405.70 701584.69,3286405.70 701563.02,3286401.40 701563.02,3286401.40 701534.16,3286395.63 701534.16,3286395.63 701510.96,3286391.03 701510.96,3286391.03 701485.95,3286386.20 701485.95,3286386.20 701462.37,3286381.79 701462.37,3286381.79 701436.85,3286377.18 701436.85,3286377.18 701408.20,3286372.16 701408.20,3286372.16 701379.32,3286367.36 701379.32,3286367.36 701358.32,3286364.03 701358.32,3286364.03 701337.57,3286360.80 701337.57,3286360.80 701324.61,3286358.91 701324.61,3286358.91 701312.87,3286357.23 701312.87,3286357.23 701297.19,3286355.04 701297.19,3286355.04 701279.43,3286352.71 701279.43,3286352.71 701260.23,3286350.27 701260.23,3286350.27 701244.01,3286348.24 701244.01,3286348.24 701230.55,3286346.58 701230.55,3286346.58 701215.95,3286344.92 701215.95,3286344.92 701200.24,3286343.25 701200.24,3286343.25 701184.84,3286341.68 701184.84,3286341.68 701167.97,3286340.04 701167.97,3286340.04 701148.03,3286338.19 701148.03,3286338.19 701131.72,3286336.77 701131.72,3286336.77 701117.03,3286335.47 701117.03,3286335.47 701101.27,3286334.12 701101.27,3286334.12 701083.90,3286332.63 701083.90,3286332.63 701060.59,3286330.67 701060.59,3286330.67 701044.44,3286329.30 701044.44,3286329.30 701023.36,3286327.55 701023.36,3286327.55 701003.88,3286325.88 701003.88,3286325.88 700984.61,3286324.26 700984.61,3286324.26 700964.10,3286322.49 700964.10,3286322.49 700941.79,3286320.55 700941.79,3286320.55 700921.54,3286318.84 700921.54,3286318.84 700903.09,3286317.26 700903.09,3286317.26 700882.38,3286315.53 700882.38,3286315.53 700860.64,3286313.73 700860.64,3286313.73 700839.65,3286311.99 700839.65,3286311.99 700817.84,3286310.15 700817.84,3286310.15 700792.86,3286308.00 700792.86,3286308.00 700769.56,3286306.07 700769.56,3286306.07 700741.59,3286303.68 700741.59,3286303.68 700714.85,3286301.43 700714.85,3286301.43 700690.28,3286299.36 700690.28,3286299.36 700663.82,3286297.14 700663.82,3286297.14 700641.71,3286295.27 700641.71,3286295.27 700614.65,3286293.02 700614.65,3286293.02 700590.57,3286291.05 700590.57,3286291.05 700573.74,3286289.61 700573.74,3286289.61 700558.42,3286288.29 700558.42,3286288.29 700539.51,3286286.68 700539.51,3286286.68 700520.91,3286285.04 700520.91,3286285.04 700501.30,3286283.40 700501.30,3286283.40 700484.66,3286281.99 700484.66,3286281.99 700468.49,3286280.62 700468.49,3286280.62 700444.03,3286278.58 700444.03,3286278.58 700422.84,3286276.79 700422.84,3286276.79 700407.82,3286275.55 700407.82,3286275.55 700394.67,3286274.43 700394.67,3286274.43 700378.10,3286273.09 700378.10,3286273.09 700361.04,3286271.70 700361.04,3286271.70 700341.02,3286269.97 700341.02,3286269.97 700322.71,3286268.44 700322.71,3286268.44 700304.59,3286266.92 700304.59,3286266.92 700287.72,3286265.49 700287.72,3286265.49 700265.34,3286263.60 700265.34,3286263.60 700242.06,3286261.64 700242.06,3286261.64 700217.54,3286259.56 700217.54,3286259.56 700200.70,3286258.13 700200.70,3286258.13 700184.75,3286256.76 700184.75,3286256.76 700161.32,3286254.77 700161.32,3286254.77 700142.41,3286253.17 700142.41,3286253.17 700127.96,3286251.96 700127.96,3286251.96 700110.69,3286250.47 700110.69,3286250.47 700096.57,3286249.28 700096.57,3286249.28 700075.21,3286247.51 700075.21,3286247.51 700048.98,3286245.29 700048.98,3286245.29 700029.60,3286243.68 700029.60,3286243.68 700002.83,3286241.44 700002.83,3286241.44 699977.16,3286239.31 699977.16,3286239.31 699964.64,3286238.31 699964.64,3286238.31 699955.67,3286237.46 699955.67,3286237.46 699912.34,3286233.89 699912.34,3286233.89 699865.39,3286229.99 699865.39,3286229.99 699813.43,3286225.58 699813.43,3286225.58 699752.93,3286220.50 699752.93,3286220.50 699697.94,3286215.86 699697.94,3286215.86 699679.53,3286214.30 699679.53,3286214.30 699651.58,3286211.96 699651.58,3286211.96 699620.39,3286209.32 699620.39,3286209.32 699588.01,3286206.67 699588.01,3286206.67 699555.23,3286203.85 699555.23,3286203.85 699508.50,3286199.90 699508.50,3286199.90 699484.08,3286197.80 699484.08,3286197.80 699468.15,3286196.49 699468.15,3286196.49 699419.23,3286192.49 699419.23,3286192.49 699365.98,3286187.95 699365.98,3286187.95 699315.51,3286183.60 699315.51,3286183.60 699294.36,3286181.79 699294.36,3286181.79 699266.01,3286179.39 699266.01,3286179.39 699237.17,3286176.93 699237.17,3286176.93 699202.28,3286173.95 699202.28,3286173.95 699181.20,3286172.17 699181.20,3286172.17 699139.05,3286168.58 699139.05,3286168.58 699107.56,3286165.93 699107.56,3286165.93 699060.53,3286161.89 699060.53,3286161.89 699023.31,3286158.80 699023.31,3286158.80 698976.16,3286154.96 698976.16,3286154.96 698904.22,3286148.94 698904.22,3286148.94 698849.86,3286144.27 698849.86,3286144.27 698836.97,3286143.23 698836.97,3286143.23 698814.65,3286141.31 698814.65,3286141.31 698785.87,3286138.84 698785.87,3286138.84 698746.18,3286135.40 698746.18,3286135.40 698710.22,3286132.34 698710.22,3286132.34 698651.86,3286127.33 698651.86,3286127.33 698599.35,3286122.88 698599.35,3286122.88 698529.35,3286117.00 698529.35,3286117.00 698462.33,3286111.43 698462.33,3286111.43 698359.88,3286102.77 698359.88,3286102.77 698275.59,3286095.65 698275.59,3286095.65 698264.30,3286094.70 698264.30,3286094.70 698239.75,3286092.66 698239.75,3286092.66 698215.50,3286090.58 698215.50,3286090.58 698190.89,3286088.53 698190.89,3286088.53 698166.78,3286086.49 698166.78,3286086.49 698146.26,3286084.72 698146.26,3286084.72 698105.86,3286081.29 698105.86,3286081.29 698023.04,3286074.23 698023.04,3286074.23 697977.19,3286070.31 697977.19,3286070.31 697945.47,3286067.76 697945.47,3286067.76 697904.64,3286064.38 697904.64,3286064.38 697870.34,3286062.01 697870.34,3286062.01 697853.42,3286061.03 697853.42,3286061.03 697819.98,3286059.60 697819.98,3286059.60 697789.40,3286059.10 697789.40,3286059.10 697762.14,3286058.79 697762.14,3286058.79 697742.46,3286058.87 697742.46,3286058.87 697712.63,3286059.53 697712.63,3286059.53 697703.47,3286059.88 697703.47,3286059.88 697683.80,3286060.64 697683.80,3286060.64 697666.96,3286061.50 697666.96,3286061.50 697647.29,3286062.76 697647.29,3286062.76 697625.43,3286064.38 697625.43,3286064.38 697602.88,3286066.23 697602.88,3286066.23 697580.02,3286068.44 697580.02,3286068.44 697552.30,3286071.15 697552.30,3286071.15 697526.94,3286073.77 697526.94,3286073.77 697500.34,3286076.60 697500.34,3286076.60 697479.49,3286078.81 697479.49,3286078.81 697444.39,3286082.63 697444.39,3286082.63 697434.88,3286083.67 697434.88,3286083.67 697423.44,3286084.86 697423.44,3286084.86 697412.62,3286086.02 697412.62,3286086.02 697396.40,3286087.74 697396.40,3286087.74 697382.95,3286089.16 697382.95,3286089.16 697371.30,3286090.39 697371.30,3286090.39 697331.38,3286094.57 697331.38,3286094.57 697311.25,3286096.70 697311.25,3286096.70 697284.32,3286099.58 697284.32,3286099.58 697263.13,3286101.79 697263.13,3286101.79 697247.86,3286103.40 697247.86,3286103.40 697225.13,3286105.83 697225.13,3286105.83 697196.97,3286108.74 697196.97,3286108.74 697170.64,3286111.57 697170.64,3286111.57 697147.55,3286113.95 697147.55,3286113.95 697125.63,3286116.39 697125.63,3286116.39 697092.54,3286119.87 697092.54,3286119.87 697066.54,3286122.59 697066.54,3286122.59 697034.74,3286125.92 697034.74,3286125.92 697004.97,3286129.12 697004.97,3286129.12 696981.39,3286131.61 696981.39,3286131.61 696944.18,3286135.60 696944.18,3286135.60 696909.73,3286139.25 696909.73,3286139.25 696887.66,3286141.56 696887.66,3286141.56 696861.29,3286144.36 696861.29,3286144.36 696835.87,3286147.08 696835.87,3286147.08 696797.86,3286151.10 696797.86,3286151.10 696761.69,3286155.00 696761.69,3286155.00 696736.94,3286157.66 696736.94,3286157.66 696692.99,3286162.29 696692.99,3286162.29 696659.98,3286165.80 696659.98,3286165.80 696621.06,3286169.91 696621.06,3286169.91 696605.79,3286171.59 696605.79,3286171.59 696577.15,3286174.58 696577.15,3286174.58 696555.21,3286176.88 696555.21,3286176.88 696534.11,3286179.12 696534.11,3286179.12 696484.86,3286184.31 696484.86,3286184.31 696464.92,3286186.48 696464.92,3286186.48 696423.68,3286190.82 696423.68,3286190.82 696404.71,3286192.84 696404.71,3286192.84 696381.32,3286195.28 696381.32,3286195.28 696359.63,3286197.50 696359.63,3286197.50 696329.15,3286200.68 696329.15,3286200.68 696307.42,3286203.04 696307.42,3286203.04 696282.67,3286205.65 696282.67,3286205.65 696259.48,3286208.17 696259.48,3286208.17 696111.75,3286223.88 696111.75,3286223.88 696083.25,3286226.86 696083.25,3286226.86 696057.84,3286229.60 696057.84,3286229.60 695945.64,3286241.42 695945.64,3286241.42 695918.52,3286244.29 695918.52,3286244.29 695863.90,3286250.10 695863.90,3286250.10 695847.16,3286251.90 695847.16,3286251.90 695828.61,3286253.88 695828.61,3286253.88 695795.79,3286257.28 695795.79,3286257.28 695768.29,3286260.15 695768.29,3286260.15 695728.54,3286264.33 695728.54,3286264.33 695691.21,3286268.16 695691.21,3286268.16 695650.83,3286272.04 695650.83,3286272.04 695590.95,3286276.88 695590.95,3286276.88 695572.24,3286278.12 695572.24,3286278.12 695540.81,3286279.95 695540.81,3286279.95 695486.19,3286282.60 695486.19,3286282.60 695437.56,3286284.25 695437.56,3286284.25 695392.05,3286285.01 695392.05,3286285.01 695235.90,3286285.55 695235.90,3286285.55 695197.97,3286285.55 695197.97,3286285.55 695164.82,3286285.55 695164.82,3286285.55 695128.05,3286285.56 695128.05,3286285.56 695068.84,3286285.50 695068.84,3286285.50 694974.37,3286285.62 694974.37,3286285.62 694899.37,3286285.72 694899.37,3286285.72 694816.90,3286285.73 694816.90,3286285.73 694778.56,3286285.89 694778.56,3286285.89 694703.72,3286285.91 694703.72,3286285.91 694650.78,3286285.96 694650.78,3286285.96 694592.67,3286286.03 694592.67,3286286.03 694574.65,3286286.01 694574.65,3286286.01 694465.41,3286286.13 694465.41,3286286.13 694374.70,3286286.31 694374.70,3286286.31 694317.22,3286286.33 694317.22,3286286.33 694255.72,3286286.32 694255.72,3286286.32 694158.47,3286286.44 694158.47,3286286.44 694083.52,3286286.43 694083.52,3286286.43 694070.46,3286286.45 694070.46,3286286.45 694053.93,3286286.48 694053.93,3286286.48 694043.49,3286286.47 694043.49,3286286.47 694026.68,3286286.50 694026.68,3286286.50 694012.41,3286286.49 694012.41,3286286.49 693992.71,3286286.49 693992.71,3286286.49 693965.80,3286286.49 693965.80,3286286.49 693940.11,3286286.51 693940.11,3286286.51 693912.53,3286286.56 693912.53,3286286.56 693881.95,3286286.64 693881.95,3286286.64 693841.23,3286286.62 693841.23,3286286.62 693799.34,3286286.63 693799.34,3286286.63 693754.36,3286286.69 693754.36,3286286.69 693750.17,3286286.69">
        <lane index="0" width="3.66" type="shoulder" disallow="all" />
        <lane index="1" width="3.66" />
        <lane index="2" width="3.66" />
    </edge>
    <edge id="328.0" from="node_324_end" to="node_325_start" numLanes="2" speed="13.89" type="town" shape="702431.64,3286572.14 702410.33,3286567.90 702410.33,3286567.90 702377.55,3286561.48 702377.55,3286561.48 702350.03,3286556.06">
        <lane index="0" width="3.66" />
        <lane index="1" width="3.66" />
    </edge>
    <edge id="329.0" from="node_329_start" to="junction_24" numLanes="1" speed="13.89" type="town" shape="702683.67,3286645.04 702661.91,3286638.69 702661.91,3286638.69 702633.31,3286630.02 702633.31,3286630.02 702614.46,3286623.91 702614.46,3286623.91 702605.93,3286621.23 702605.93,3286621.23 702598.45,3286618.84 702598.45,3286618.84 702584.44,3286614.83 702584.44,3286614.83 702574.76,3286611.77 702574.76,3286611.77 702568.97,3286610.11 702568.97,3286610.11 702563.75,3286608.66 702563.75,3286608.66 702561.30,3286607.96">
        <lane index="0" width="3.66" />