<?xml version='1.0' encoding='utf-8'?>
<edges>
    <edge id="260.0" from="node_260_start" to="node_260_end" numLanes="5" speed="13.89" type="town" shape="794623.91,3298178.68 793606.02,3298142.91">
        <lane index="0" width="3.66" type="shoulder" disallow="all" />
        <lane index="1" width="3.66" />
        <lane index="2" width="3.66" />
        <lane index="3" width="3.66" />
        <lane index="4" width="3.66" type="shoulder" disallow="all" />
    </edge>
    <edge id="261.0" from="junction_85" to="node_260_start" numLanes="4" speed="13.89" type="town" shape="794678.18,3298180.50 794623.91,3298178.68">
        <lane index="0" width="3.66" />
        <lane index="1" width="3.66" />
        <lane index="2" width="3.66" />
        <lane index="3" width="3.66" type="shoulder" disallow="all" />
    </edge>
    <edge id="276.0" from="junction_85" to="node_276_end" numLanes="1" speed="13.89" type="town" shape="794677.71,3298194.94 794556.70,3298200.92 794556.70,3298200.92 794505.34,3298202.11">
        <lane index="0" width="3.66" />
    </edge>
    <edge id="290.0" from="node_290_start" to="j_merge_start_56" numLanes="1" speed="13.89" type="town" shape="793073.44,3298177.26 792939.11,3298173.37 792939.11,3298173.37 792876.41,3298174.67 792876.41,3298174.67 792827.82,3298178.76 792827.82,3298178.76 792808.96,3298181.30 792808.96,3298181.30 792773.79,3298186.56 792773.79,3298186.56 792735.54,3298194.06 792735.54,3298194.06 792691.20,3298204.66 792691.20,3298204.66 792625.40,3298223.02">
        <lane index="0" width="3.66" />
    </edge>
    <edge id="291.0" from="node_291_start" to="j_merge_start_23" numLanes="4" speed="13.89" type="town" shape="793562.73,3298141.30 793539.22,3298140.29">
        <lane index="0" width="3.66" />
        <lane index="1" width="3.66" />
        <lane index="2" width="3.66" />
        <lane index="3" width="3.66" type="shoulder" disallow="all" />
    </edge>
    <edge id="296.0" from="node_296_start" to="node_296_end" numLanes="5" speed="13.89" type="town" shape="791062.55,3298436.64 791025.74,3298430.43 791025.74,3298430.43 790948.87,3298416.37 790948.87,3298416.37 790887.27,3298404.06 790887.27,3298404.06 790843.19,3298394.75 790843.19,3298394.75 790807.39,3298386.70 790807.39,3298386.70 790762.25,3298376.19 790762.25,3298376.19 790722.17,3298366.43 790722.17,3298366.43 790679.39,3298355.58 790679.39,3298355.58 790602.32,3298334.76 790602.32,3298334.76 790524.02,3298311.99 790524.02,3298311.99 790184.66,3298209.69">
        <lane index="0" width="3.66" type="shoulder" disallow="all" />
        <lane index="1" width="3.66" />
        <lane index="2" width="3.66" />
        <lane index="3" width="3.66" />
        <lane index="4" width="3.66" type="shoulder" disallow="all" />
    </edge>
    <edge id="297.0" from="node_297_start" to="j_merge_start_23" numLanes="1" speed="13.89" type="town" shape="793857.94,3298182.02 793743.81,3298175.83 793743.81,3298175.83 793715.69,3298173.51 793715.69,3298173.51 793639.13,3298165.31 793639.13,3298165.31 793538.69,3298155.18">
        <lane index="0" width="3.66" />
    </edge>
    <edge id="301.0" from="node_260_end" to="node_291_start" numLanes="4" speed="13.89" type="town" shape="793606.02,3298142.91 793562.73,3298141.30">
        <lane index="0" width="3.66" />
        <lane index="1" width="3.66" />
        <lane index="2" width="3.66" />
        <lane index="3" width="3.66" type="shoulder" disallow="all" />
    </edge>
    <edge id="302.0" from="node_296_end" to="node_302_end" numLanes="5" speed="13.89" type="town" shape="790184.66,3298209.69 790048.08,3298168.44">
        <lane index="0" width="3.66" type="shoulder" disallow="all" />
        <lane index="1" width="3.66" />
        <lane index="2" width="3.66" />
        <lane index="3" width="3.66" />
        <lane index="4" width="3.66" type="shoulder" disallow="all" />
    </edge>
    <edge id="306.0" from="node_302_end" to="junction_20" numLanes="5" speed="13.89" type="town" shape="790048.08,3298168.44 789547.78,3298017.62 789547.78,3298017.62 789487.19,3297999.59 789487.19,3297999.59 789371.85,3297964.62 789371.85,3297964.62 789012.58,3297856.40 789012.58,3297856.40 788951.95,3297837.29 788951.95,3297837.29 788690.13,3297750.39 788690.13,3297750.39 788559.59,3297706.71 788559.59,3297706.71 788494.01,3297685.13 788494.01,3297685.13 788459.25,3297673.90 788459.25,3297673.90 788428.40,3297664.23 788428.40,3297664.23 788369.92,3297646.33 788369.92,3297646.33 787927.11,3297512.67">
        <lane index="0" width="3.66" type="shoulder" disallow="all" />
        <lane index="1" width="3.66" />
        <lane index="2" width="3.66" />
        <lane index="3" width="3.66" />
        <lane index="4" width="3.66" type="shoulder" disallow="all" />
    </edge>
    <edge id="308.0" from="j_merge_end_23" to="node_308_end" numLanes="5" speed="13.89" type="town" shape="793243.52,3298131.16 793139.07,3298128.52 793139.07,3298128.52 793112.99,3298128.03 793112.99,3298128.03 793091.86,3298128.05 793091.86,3298128.05 793070.99,3298128.35 793070.99,3298128.35 793053.35,3298128.76 793053.35,3298128.76 793035.89,3298129.52 793035.89,3298129.52 793013.65,3298130.64 793013.65,3298130.64 792992.37,3298132.06 792992.37,3298132.06 792955.25,3298135.20 792955.25,3298135.20 792907.76,3298141.14 792907.76,3298141.14 792874.60,3298145.83 792874.60,3298145.83 792833.23,3298153.02 792833.23,3298153.02 792805.43,3298158.09">
        <lane index="0" width="3.66" type="shoulder" disallow="all" />
        <lane index="1" width="3.66" />
        <lane index="2" width="3.66" />
        <lane index="3" width="3.66" />
        <lane index="4" width="3.66" type="shoulder" disallow="all" />
    </edge>
    <edge id="309.0" from="node_308_end" to="j_merge_start_56" numLanes="4" speed="13.89" type="town" shape="792805.43,3298158.09 792768.53,3298166.18 792768.53,3298166.18 792727.12,3298176.57 792727.12,3298176.57 792709.78,3298181.27 792709.78,3298181.27 792692.99,3298186.02 792692.99,3298186.02 792666.67,3298193.94 792666.67,3298193.94 792639.12,3298202.76 792639.12,3298202.76 792620.51,3298209.11">
        <lane index="0" width="3.66" />
        <lane index="1" width="3.66" />
        <lane index="2" width="3.66" />
        <lane index="3" width="3.66" type="shoulder" disallow="all" />
    </edge>
    <edge id="310.0" from="node_310_start" to="junction_85" numLanes="5" speed="13.89" type="town" shape="795209.66,3298198.97 794770.33,3298183.56">
        <lane index="0" width="3.66" type="shoulder" disallow="all" />
        <lane index="1" width="3.66" />
        <lane index="2" width="3.66" />
        <lane index="3" width="3.66" />
        <lane index="4" width="3.66" type="shoulder" disallow="all" />
    </edge>
    <edge id="771.0" from="node_771_start" to="junction_119" numLanes="5" speed="13.89" type="town" shape="795550.81,3298210.99 795467.41,3298207.99 795467.41,3298207.99 795402.74,3298206.18">
        <lane index="0" width="3.66" />
        <lane index="1" width="3.66" />
        <lane index="2" width="3.66" />
        <lane index="3" width="3.66" />
        <lane index="4" width="3.66" type="shoulder" disallow="all" />
    </edge>
    <edge id="772.0" from="node_772_start" to="node_771_start" numLanes="4" speed="13.89" type="town" shape="795668.32,3298215.20 795666.72,3298215.14 795666.72,3298215.14 795664.33,3298215.06 795664.33,3298215.06 795661.25,3298214.95 795661.25,3298214.95 795657.52,3298214.81 795657.52,3298214.81 795653.22,3298214.66 795653.22,3298214.66 795648.42,3298214.49 795648.42,3298214.49 795643.18,3298214.30 795643.18,3298214.30 795637.58,3298214.10 795637.58,3298214.10 795631.67,3298213.89 795631.67,3298213.89 795625.52,3298213.67 795625.52,3298213.67 795619.21,3298213.44 795619.21,3298213.44 795612.79,3298213.21 795612.79,3298213.21 795606.34,3298212.98 795606.34,3298212.98 795599.93,3298212.75 795599.93,3298212.75 795593.61,3298212.52 795593.61,3298212.52 795587.47,3298212.30 795587.47,3298212.30 795581.56,3298212.09 795581.56,3298212.09 795575.95,3298211.89 795575.95,3298211.89 795570.71,3298211.70 795570.71,3298211.70 795565.91,3298211.53 795565.91,3298211.53 795561.61,3298211.37 795561.61,3298211.37 795557.89,3298211.24 795557.89,3298211.24 795554.80,3298211.13 795554.80,3298211.13 795552.42,3298211.04 795552.42,3298211.04 795550.81,3298210.99">
        <lane index="0" width="3.66" />
        <lane index="1" width="3.66" />
        <lane index="2" width="3.66" />
        <lane index="3" width="3.66" type="shoulder" disallow="all" />
    </edge>
    <edge id="773.0" from="node_772_start" to="node_771_start" numLanes="1" speed="13.89" type="town" shape="795668.00,3298226.15 795666.39,3298226.11 795666.39,3298226.11 795664.00,3298226.07 795664.00,3298226.07 795660.90,3298226.05 795660.90,3298226.05 795657.16,3298226.02 795657.16,3298226.02 795652.85,3298226.01 795652.85,3298226.01 795648.03,3298225.99 795648.03,3298225.99 795642.77,3298225.98 795642.77,3298225.98 795637.14,3298225.98 795637.14,3298225.98 795631.20,3298225.98 795631.20,3298225.98 795625.03,3298225.97 795625.03,3298225.97 795618.69,3298225.97 795618.69,3298225.97 795612.25,3298225.97 795612.25,3298225.97 795605.77,3298225.98 795605.77,3298225.98 795599.33,3298225.98 795599.33,3298225.98 795592.99,3298225.98 795592.99,3298225.98 795586.82,3298225.98 795586.82,3298225.98 795580.88,3298225.97 795580.88,3298225.97 795575.25,3298225.97 795575.25,3298225.97 795569.99,3298225.96 795569.99,3298225.96 795565.17,3298225.94 795565.17,3298225.94 795560.85,3298225.93 795560.85,3298225.93 795557.11,3298225.90 795557.11,3298225.90 795554.02,3298225.88 795554.02,3298225.88 795551.63,3298225.84 795551.63,3298225.84 795550.02,3298225.80">
        <lane index="0" width="3.66" />
    </edge>
    <edge id="785.0" from="junction_119" to="node_310_start" numLanes="4" speed="13.89" type="town" shape="795352.16,3298204.03 795209.66,3298198.97">
        <lane index="0" width="3.66" />
        <lane index="1" width="3.66" />
        <lane index="2" width="3.66" />
        <lane index="3" width="3.66" type="shoulder" disallow="all" />
    </edge>
    <edge id="787.0" from="node_787_start" to="node_787_end" numLanes="2" speed="13.89" type="town" shape="795217.38,3298223.43 795037.23,3298229.08">
        <lane index="0" width="3.66" />
        <lane index="1" width="3.66" />
    </edge>
    <edge id="788.0" from="junction_119" to="node_787_start" numLanes="2" speed="13.89" type="town" shape="795351.68,3298219.28 795304.69,3298220.28 795304.69,3298220.28 795217.38,3298223.43">
        <lane index="0" width="3.66" />
        <lane index="1" width="3.66" />
    </edge>
    <edge id="797.0" from="j_merge_end_55" to="node_797_end" numLanes="5" speed="13.89" type="town" shape="796851.96,3298139.86 796575.99,3298173.63 796575.99,3298173.63 796289.52,3298208.98 796289.52,3298208.98 796249.51,3298213.61 796249.51,3298213.61 796177.34,3298222.24 796177.34,3298222.24 796156.78,3298224.06 796156.78,3298224.06 796148.54,3298224.25 796148.54,3298224.25 796141.48,3298225.26 796141.48,3298225.26 796129.65,3298226.10 796129.65,3298226.10 796112.50,3298227.22 796112.50,3298227.22 796102.55,3298228.19 796102.55,3298228.19 796092.33,3298228.07 796092.33,3298228.07 796075.21,3298228.41 796075.21,3298228.41 796047.27,3298228.60 796047.27,3298228.60 796021.40,3298228.25 796021.40,3298228.25 795945.22,3298225.61 795945.22,3298225.61 795869.05,3298222.32 795869.05,3298222.32 795856.96,3298221.90">
        <lane index="0" width="3.66" type="shoulder" disallow="all" />
        <lane index="1" width="3.66" />
        <lane index="2" width="3.66" />
        <lane index="3" width="3.66" />
        <lane index="4" width="3.66" type="shoulder" disallow="all" />
    </edge>
    <edge id="798.0" from="node_797_end" to="node_772_start" numLanes="5" speed="13.89" type="town" shape="795856.96,3298221.90 795668.32,3298215.20">
        <lane index="0" width="3.66" type="shoulder" disallow="all" />
        <lane index="1" width="3.66" />
        <lane index="2" width="3.66" />
        <lane index="3" width="3.66" />
        <lane index="4" width="3.66" type="shoulder" disallow="all" />
    </edge>
    <edge id="295.0" from="junction_83" to="node_296_start" numLanes="4" speed="13.89" type="town" shape="791120.47,3298445.72 791062.55,3298436.64">
        <lane index="0" width="3.66" />
        <lane index="1" width="3.66" />
        <lane index="2" width="3.66" />
        <lane index="3" width="3.66" type="shoulder" disallow="all" />
    </edge>
    <edge id="278.0" from="node_278_start" to="j_merge_start_55" numLanes="1" speed="13.89" type="town" shape="797569.46,3298202.70 797423.70,3298126.12 797423.70,3298126.12 797399.91,3298117.18 797399.91,3298117.18 797373.03,3298110.65 797373.03,3298110.65 797350.51,3298107.44 797350.51,3298107.44 797333.96,3298105.94 797333.96,3298105.94 797311.96,3298105.44 797311.96,3298105.44 797280.36,3298106.48 797280.36,3298106.48 797255.42,3298108.16 797255.42,3298108.16 797217.83,3298111.64 797217.83,3298111.64 797079.43,3298126.21">
        <lane index="0" width="3.66" />
    </edge>
    <edge id="merge_zone_55" from="j_merge_start_55" to="j_merge_end_55" numLanes="5" speed="13.89" name="Merge zone 55" type="highway_merge" shape="797077.76,3298112.17 796851.96,3298139.86">
        <lane index="0" width="3.66" />
        <lane index="1" width="3.66" />
        <lane index="2" width="3.66" />
        <lane index="3" width="3.66" />
        <lane index="4" width="3.66" type="shoulder" disallow="all" />
    </edge>
    <edge id="merge_zone_23" from="j_merge_start_23" to="j_merge_end_23" numLanes="5" speed="13.89" name="Merge zone 23" type="highway_merge" shape="793403.46,3298135.48 793403.46,3298135.48 793243.52,3298131.16">
        <lane index="0" width="3.66" />
        <lane index="1" width="3.66" />
        <lane index="2" width="3.66" />
        <lane index="3" width="3.66" />
        <lane index="4" width="3.66" type="shoulder" disallow="all" />
    </edge>
    <edge id="merge_zone_56" from="j_merge_start_56" to="j_merge_end_56" numLanes="5" speed="13.89" name="Merge zone 56" type="highway_merge" shape="792548.72,3298236.56 792548.72,3298236.56 792513.74,3298251.33 792513.74,3298251.33 792481.62,3298265.99 792481.62,3298265.99 792467.86,3298272.41 792467.86,3298272.41 792453.96,3298279.33 792453.96,3298279.33 792423.24,3298295.07 792423.24,3298295.07 792397.93,3298308.59 792397.93,3298308.59 792372.25,3298322.91 792372.25,3298322.91 792356.62,3298331.94">
        <lane index="0" width="3.66" />
        <lane index="1" width="3.66" />
        <lane index="2" width="3.66" />
        <lane index="3" width="3.66" />
        <lane index="4" width="3.66" type="shoulder" disallow="all" />
    </edge>
</edges>