<?xml version='1.0' encoding='utf-8'?>
<nodes>
    <node id="node_663_start" x="577387.1987585055" y="3263157.0738861463" type="priority" />
    <node id="node_663_end" x="575775.2504192622" y="3262517.3710483033" type="priority" />
    <node id="node_665_end" x="578785.5438510394" y="3263756.130160558" type="priority" />
    <node id="node_666_end" x="578626.5558353525" y="3263685.997916021" type="priority" />
    <node id="node_671_end" x="577382.428983114" y="3263169.3840665706" type="priority" />
    <node id="node_673_start" x="578782.8681709082" y="3263762.6518545295" type="priority" />
    <node id="node_673_end" x="578625.1876497485" y="3263689.315707434" type="priority" />
    <node id="node_674_end" x="577277.1114779928" y="3263132.867099037" type="priority" />
    <node id="node_676_start" x="575844.9810946304" y="3262565.4282377004" type="priority" />
    <node id="node_678_end" x="572809.0806899711" y="3261339.952342854" type="priority" />
    <node id="node_681_start" x="574765.032800338" y="3262127.602901947" type="priority" />
    <node id="node_681_end" x="574673.376605042" y="3262099.103713035" type="priority" />
    <node id="node_683_start" x="572470.0208782429" y="3261205.358774426" type="priority" />
    <node id="node_685_start" x="571629.9985513996" y="3260875.1282976996" type="priority" />
    <node id="node_685_end" x="571623.3872752262" y="3260872.6784414393" type="priority" />
    <node id="node_686_start" x="572564.4037452758" y="3261242.759432008" type="priority" />
    <node id="node_687_start" x="572724.4118963636" y="3261306.3078732216" type="priority" />
    <node id="node_687_end" x="572720.9187105048" y="3261304.923855632" type="priority" />
    <node id="node_688_end" x="575481.2568278464" y="3262400.6095691044" type="priority" />
    <node id="node_690_start" x="574768.883265286" y="3262117.7811640245" type="priority" />
    <node id="node_690_end" x="574707.4218683487" y="3262093.296743905" type="priority" />
    <node id="node_692_end" x="573101.8329623345" y="3261456.0598562495" type="priority" />
    <node id="node_695_start" x="575398.0174468067" y="3262367.551510216" type="priority" />
    <node id="node_695_end" x="575226.0988739937" y="3262299.303069267" type="priority" />
    <node id="node_697_end" x="572754.1807966497" y="3261318.178768316" type="priority" />
    <node id="node_700_end" x="575141.131208375" y="3262265.6148792333" type="priority" />
    <node id="node_701_start" x="575223.468964322" y="3262306.1619192315" type="priority" />
    <node id="node_701_end" x="575139.7966614487" y="3262268.953210953" type="priority" />
    <node id="node_703_end" x="571629.153548376" y="3260877.5953213684" type="priority" />
    <node id="node_706_end" x="571859.6880562732" y="3260985.9453826365" type="priority" />
    <node id="node_710_start" x="572561.5343114104" y="3261249.6221784605" type="priority" />
    <node id="node_710_end" x="572468.6963801665" y="3261208.73020919" type="priority" />
    <node id="node_713_start" x="573151.3671790839" y="3261495.801360733" type="priority" />
    <node id="node_882_start" x="579660.5610734276" y="3264138.014417301" type="priority" />
    <node id="node_887_start" x="579659.0757238115" y="3264141.3749408755" type="priority" />
    <node id="node_893_end" x="571453.0960383003" y="3260808.202801433" type="priority" />
    <node id="node_881_start" x="580160.750759743" y="3264358.567832373" type="priority" />
    <node id="node_894_start" x="571452.0053450123" y="3260810.900251601" type="priority" />
    <node id="node_894_end" x="571429.4939810758" y="3260802.4525758806" type="priority" />
    <node id="junction_63" x="0.0" y="0.0" type="priority" />
    <node id="junction_1" x="0.0" y="0.0" type="priority" />
    <node id="junction_70" x="0.0" y="0.0" type="priority" />
    <node id="junction_2" x="0.0" y="0.0" type="priority" />
    <node id="junction_6" x="0.0" y="0.0" type="priority" />
    <node id="junction_9" x="0.0" y="0.0" type="priority" />
    <node id="junction_64" x="0.0" y="0.0" type="priority" />
    <node id="junction_10" x="0.0" y="0.0" type="priority" />
    <node id="junction_73" x="0.0" y="0.0" type="priority" />
    <node id="junction_11" x="0.0" y="0.0" type="priority" />
    <node id="junction_74" x="0.0" y="0.0" type="priority" />
    <node id="junction_77" x="0.0" y="0.0" type="priority" />
    <node id="junction_75" x="0.0" y="0.0" type="priority" />
    <node id="junction_3" x="0.0" y="0.0" type="priority" />
    <node id="junction_16" x="0.0" y="0.0" type="priority" />
    <node id="junction_78" x="0.0" y="0.0" type="priority" />
    <node id="junction_79" x="0.0" y="0.0" type="priority" />
    <node id="junction_17" x="0.0" y="0.0" type="priority" />
    <node id="junction_19" x="0.0" y="0.0" type="priority" />
    <node id="junction_18" x="0.0" y="0.0" type="priority" />
    <node id="junction_76" x="0.0" y="0.0" type="priority" />
    <node id="junction_12" x="0.0" y="0.0" type="priority" />
    <node id="junction_14" x="0.0" y="0.0" type="priority" />
    <node id="junction_84" x="0.0" y="0.0" type="priority" />
    <node id="junction_65" x="0.0" y="0.0" type="priority" />
    <node id="junction_85" x="0.0" y="0.0" type="priority" />
    <node id="junction_55" x="0.0" y="0.0" type="priority" />
    <node id="junction_86" x="0.0" y="0.0" type="priority" />
    <node id="junction_81" x="0.0" y="0.0" type="priority" />
    <node id="junction_21" x="0.0" y="0.0" type="priority" />
    <node id="junction_82" x="0.0" y="0.0" type="priority" />
    <node id="junction_22" x="0.0" y="0.0" type="priority" />
    <node id="junction_80" x="0.0" y="0.0" type="priority" />
    <node id="junction_20" x="0.0" y="0.0" type="priority" />
    <node id="junction_4" x="0.0" y="0.0" type="priority" />
    <node id="junction_23" x="0.0" y="0.0" type="priority" />
    <node id="junction_83" x="0.0" y="0.0" type="priority" />
    <node id="junction_66" x="0.0" y="0.0" type="priority" />
    <node id="junction_24" x="0.0" y="0.0" type="priority" />
    <node id="junction_88" x="0.0" y="0.0" type="priority" />
    <node id="junction_26" x="0.0" y="0.0" type="priority" />
    <node id="junction_27" x="0.0" y="0.0" type="priority" />
    <node id="junction_28" x="0.0" y="0.0" type="priority" />
    <node id="junction_91" x="0.0" y="0.0" type="priority" />
    <node id="junction_29" x="0.0" y="0.0" type="priority" />
    <node id="junction_92" x="0.0" y="0.0" type="priority" />
    <node id="junction_30" x="0.0" y="0.0" type="priority" />
    <node id="junction_31" x="0.0" y="0.0" type="priority" />
    <node id="junction_32" x="0.0" y="0.0" type="priority" />
    <node id="junction_96" x="0.0" y="0.0" type="priority" />
    <node id="junction_33" x="0.0" y="0.0" type="priority" />
    <node id="junction_98" x="0.0" y="0.0" type="priority" />
    <node id="junction_99" x="0.0" y="0.0" type="priority" />
    <node id="junction_100" x="0.0" y="0.0" type="priority" />
    <node id="junction_37" x="0.0" y="0.0" type="priority" />
    <node id="junction_36" x="0.0" y="0.0" type="priority" />
    <node id="junction_35" x="0.0" y="0.0" type="priority" />
    <node id="junction_97" x="0.0" y="0.0" type="priority" />
    <node id="junction_87" x="0.0" y="0.0" type="priority" />
    <node id="junction_89" x="0.0" y="0.0" type="priority" />
    <node id="junction_90" x="0.0" y="0.0" type="priority" />
    <node id="junction_93" x="0.0" y="0.0" type="priority" />
    <node id="junction_94" x="0.0" y="0.0" type="priority" />
    <node id="junction_95" x="0.0" y="0.0" type="priority" />
    <node id="junction_34" x="0.0" y="0.0" type="priority" />
    <node id="junction_38" x="0.0" y="0.0" type="priority" />
    <node id="junction_39" x="0.0" y="0.0" type="priority" />
    <node id="junction_40" x="0.0" y="0.0" type="priority" />
    <node id="junction_102" x="0.0" y="0.0" type="priority" />
    <node id="junction_103" x="0.0" y="0.0" type="priority" />
    <node id="junction_106" x="0.0" y="0.0" type="priority" />
    <node id="junction_42" x="0.0" y="0.0" type="priority" />
    <node id="junction_104" x="0.0" y="0.0" type="priority" />
    <node id="junction_41" x="0.0" y="0.0" type="priority" />
    <node id="junction_43" x="0.0" y="0.0" type="priority" />
    <node id="junction_44" x="0.0" y="0.0" type="priority" />
    <node id="junction_45" x="0.0" y="0.0" type="priority" />
    <node id="junction_108" x="0.0" y="0.0" type="priority" />
    <node id="junction_46" x="0.0" y="0.0" type="priority" />
    <node id="junction_68" x="0.0" y="0.0" type="priority" />
    <node id="junction_47" x="0.0" y="0.0" type="priority" />
    <node id="junction_49" x="0.0" y="0.0" type="priority" />
    <node id="junction_111" x="0.0" y="0.0" type="priority" />
    <node id="junction_53" x="0.0" y="0.0" type="priority" />
    <node id="junction_116" x="0.0" y="0.0" type="priority" />
    <node id="junction_115" x="0.0" y="0.0" type="priority" />
    <node id="junction_54" x="0.0" y="0.0" type="priority" />
    <node id="junction_48" x="0.0" y="0.0" type="priority" />
    <node id="junction_117" x="0.0" y="0.0" type="priority" />
    <node id="junction_101" x="0.0" y="0.0" type="priority" />
    <node id="junction_105" x="0.0" y="0.0" type="priority" />
    <node id="junction_107" x="0.0" y="0.0" type="priority" />
    <node id="junction_109" x="0.0" y="0.0" type="priority" />
    <node id="junction_110" x="0.0" y="0.0" type="priority" />
    <node id="junction_13" x="0.0" y="0.0" type="priority" />
    <node id="junction_7" x="0.0" y="0.0" type="priority" />
    <node id="junction_15" x="0.0" y="0.0" type="priority" />
    <node id="junction_119" x="0.0" y="0.0" type="priority" />
    <node id="junction_120" x="0.0" y="0.0" type="priority" />
    <node id="junction_56" x="0.0" y="0.0" type="priority" />
    <node id="junction_118" x="0.0" y="0.0" type="priority" />
    <node id="junction_121" x="0.0" y="0.0" type="priority" />
    <node id="junction_61" x="0.0" y="0.0" type="priority" />
    <node id="junction_122" x="0.0" y="0.0" type="priority" />
    <node id="junction_8" x="0.0" y="0.0" type="priority" />
    <node id="junction_62" x="0.0" y="0.0" type="priority" />
    <node id="junction_71" x="0.0" y="0.0" type="priority" />
    <node id="junction_57" x="0.0" y="0.0" type="priority" />
    <node id="junction_5" x="0.0" y="0.0" type="priority" />
    <node id="junction_123" x="0.0" y="0.0" type="priority" />
    <node id="junction_25" x="0.0" y="0.0" type="priority" />
    <node id="junction_124" x="0.0" y="0.0" type="priority" />
    <node id="junction_58" x="0.0" y="0.0" type="priority" />
    <node id="junction_59" x="0.0" y="0.0" type="priority" />
    <node id="junction_125" x="0.0" y="0.0" type="priority" />
    <node id="junction_126" x="0.0" y="0.0" type="priority" />
    <node id="junction_60" x="0.0" y="0.0" type="priority" />
    <node id="junction_72" x="0.0" y="0.0" type="priority" />
    <node id="junction_127" x="0.0" y="0.0" type="priority" />
    <node id="junction_51" x="572957.008877725" y="3261402.4311518613" type="priority" />
    <node id="junction_113" x="572219.1479001046" y="3261106.4041606206" type="priority" />
    <node id="junction_52" x="575627.7226928171" y="3262462.507736608" type="priority" />
    <node id="junction_114" x="574850.2206703192" y="3262152.648047868" type="priority" />
    <node id="junction_50" x="579302.2201725229" y="3263983.3866828172" type="priority" />
    <node id="junction_112" x="577530.2022089183" y="3263216.598345665" type="priority" />
</nodes>