<?xml version="1.0" encoding="UTF-8"?>

<!-- generated on 2025-10-19 17:33:41 by Eclipse SUMO netconvert Version 1.23.1
<netconvertConfiguration xmlns:xsi="http://www.w3.org/2001/XMLSchema-instance" xsi:noNamespaceSchemaLocation="http://sumo.dlr.de/xsd/netconvertConfiguration.xsd">

    <input>
        <node-files value="/home/sdai/harry/TeraSim/jupiter/wb/jupiter_wb_tiles/tile_0006/tile_0006.nod.xml"/>
        <edge-files value="/home/sdai/harry/TeraSim/jupiter/wb/jupiter_wb_tiles/tile_0006/tile_0006.edg.xml"/>
        <connection-files value="/home/sdai/harry/TeraSim/jupiter/wb/jupiter_wb_tiles/tile_0006/tile_0006.con.xml"/>
    </input>

    <output>
        <output-file value="/home/sdai/harry/TeraSim/jupiter/wb/jupiter_wb_tiles/tile_0006/tile_0006.net.xml"/>
        <output.street-names value="true"/>
        <output.original-names value="true"/>
    </output>

    <processing>
        <geometry.remove value="false"/>
        <geometry.min-dist value="0.5"/>
        <edges.join value="false"/>
    </processing>

    <junctions>
        <no-internal-links value="false"/>
        <no-turnarounds value="true"/>
        <junctions.join value="true"/>
        <junctions.join-dist value="10"/>
        <junctions.corner-detail value="5"/>
        <junctions.internal-link-detail value="5"/>
        <junctions.limit-turn-speed value="5.5"/>
        <rectangular-lane-cut value="true"/>
        <check-lane-foes.all value="true"/>
    </junctions>

</netconvertConfiguration>
-->

<net version="1.20" junctionCornerDetail="5" junctionLinkDetail="5" rectangularLaneCut="true" limitTurnSpeed="5.50" checkLaneFoesAll="1" xmlns:xsi="http://www.w3.org/2001/XMLSchema-instance" xsi:noNamespaceSchemaLocation="http://sumo.dlr.de/xsd/net_file.xsd">

    <location netOffset="-571452.01,-3260808.20" convBoundary="0.00,0.00,8208.56,3333.17" origBoundary="0.00,0.00,580160.75,3264358.57" projParameter="!"/>

    <edge id=":junction_112_0" function="internal">
        <lane id=":junction_112_0_0" index="0" speed="13.89" length="45.93" width="3.66" shape="6105.59,2422.49 6061.65,2409.16"/>
    </edge>
    <edge id=":junction_112_1" function="internal">
        <lane id=":junction_112_1_0" index="0" speed="13.89" length="46.02" width="3.66" shape="6105.59,2422.49 6062.80,2405.51"/>
        <lane id=":junction_112_1_1" index="1" speed="13.89" length="46.02" width="3.66" shape="6106.93,2419.08 6064.16,2402.11"/>
    </edge>
    <edge id=":junction_113_0" function="internal">
        <lane id=":junction_113_0_0" index="0" speed="13.89" length="90.59" width="3.66" shape="821.97,323.51 736.71,292.87"/>
    </edge>
    <edge id=":junction_113_1" function="internal">
        <lane id=":junction_113_1_0" index="0" speed="13.89" length="90.86" width="3.66" shape="821.97,323.51 737.54,289.95"/>
        <lane id=":junction_113_1_1" index="1" speed="13.89" length="90.86" width="3.66" shape="823.33,320.12 738.88,286.54"/>
    </edge>
    <edge id=":junction_114_0" function="internal">
        <lane id=":junction_114_0_0" index="0" speed="13.89" length="128.71" width="3.66" shape="3473.68,1377.62 3352.62,1333.92"/>
    </edge>
    <edge id=":junction_114_1" function="internal">
        <lane id=":junction_114_1_0" index="0" speed="13.89" length="128.75" width="3.66" shape="3473.68,1377.62 3353.97,1330.21"/>
        <lane id=":junction_114_1_1" index="1" speed="13.89" length="128.75" width="3.66" shape="3475.03,1374.22 3355.34,1326.81"/>
    </edge>
    <edge id=":junction_50_0" function="internal">
        <lane id=":junction_50_0_0" index="0" speed="13.89" length="275.11" width="3.66" shape="8032.46,3261.33 7774.49,3165.61"/>
        <lane id=":junction_50_0_1" index="1" speed="13.89" length="275.11" width="3.66" shape="8033.95,3257.99 7776.06,3162.31"/>
    </edge>
    <edge id=":junction_50_2" function="internal">
        <lane id=":junction_50_2_0" index="0" speed="13.89" length="274.75" width="3.66" shape="8034.05,3257.66 7777.63,3159.00"/>
    </edge>
    <edge id=":junction_51_0" function="internal">
        <lane id=":junction_51_0_0" index="0" speed="13.89" length="95.62" width="3.66" shape="1531.06,614.23 1443.50,575.82"/>
    </edge>
    <edge id=":junction_51_1" function="internal">
        <lane id=":junction_51_1_0" index="0" speed="13.89" length="96.16" width="3.66" shape="1534.22,607.88 1444.85,572.42"/>
        <lane id=":junction_51_1_1" index="1" speed="13.89" length="96.16" width="3.66" shape="1535.58,604.49 1446.19,569.01"/>
    </edge>
    <edge id=":junction_52_0" function="internal">
        <lane id=":junction_52_0_0" index="0" speed="13.89" length="101.98" width="3.66" shape="4204.15,1675.24 4110.67,1634.47"/>
    </edge>
    <edge id=":junction_52_1" function="internal">
        <lane id=":junction_52_1_0" index="0" speed="13.89" length="101.90" width="3.66" shape="4206.68,1668.69 4111.99,1631.06"/>
        <lane id=":junction_52_1_1" index="1" speed="13.89" length="101.90" width="3.66" shape="4208.03,1665.29 4113.31,1627.65"/>
    </edge>
    <edge id=":node_663_end_0" function="internal">
        <lane id=":node_663_end_0_0" index="0" speed="13.89" length="0.30" width="3.66" shape="4321.36,1714.33 4321.09,1714.22"/>
        <lane id=":node_663_end_0_1" index="1" speed="13.89" length="0.30" width="3.66" shape="4322.71,1710.93 4322.43,1710.82"/>
    </edge>
    <edge id=":node_663_start_0" function="internal">
        <lane id=":node_663_start_0_0" index="0" speed="13.89" length="3.00" width="3.66" shape="5934.55,2354.53 5931.78,2353.42"/>
        <lane id=":node_663_start_0_1" index="1" speed="13.89" length="3.00" width="3.66" shape="5935.92,2351.13 5933.12,2350.02"/>
    </edge>
    <edge id=":node_665_end_0" function="internal">
        <lane id=":node_665_end_0_0" index="0" speed="13.89" length="3.17" width="3.66" shape="7331.32,2956.95 7330.48,2956.53 7329.94,2956.19 7329.40,2955.83 7328.57,2955.40"/>
    </edge>
    <edge id=":node_665_end_1" function="internal">
        <lane id=":node_665_end_1_0" index="0" speed="13.89" length="2.98" width="3.66" shape="7332.79,2953.60 7330.05,2952.39"/>
        <lane id=":node_665_end_1_1" index="1" speed="13.89" length="2.98" width="3.66" shape="7334.26,2950.25 7331.55,2949.05"/>
    </edge>
    <edge id=":node_666_end_0" function="internal">
        <lane id=":node_666_end_0_0" index="0" speed="13.89" length="8.06" width="3.66" shape="7176.04,2884.47 7168.68,2881.18"/>
    </edge>
    <edge id=":node_666_end_1" function="internal">
        <lane id=":node_666_end_1_0" index="0" speed="13.89" length="8.00" width="3.66" shape="7176.01,2884.43 7168.68,2881.18"/>
        <lane id=":node_666_end_1_1" index="1" speed="13.89" length="8.00" width="3.66" shape="7177.48,2881.07 7170.17,2877.84"/>
    </edge>
    <edge id=":node_671_end_0" function="internal">
        <lane id=":node_671_end_0_0" index="0" speed="13.89" length="0.30" width="3.66" shape="5929.97,2362.96 5929.68,2362.86"/>
    </edge>
    <edge id=":node_678_end_0" function="internal">
        <lane id=":node_678_end_0_0" index="0" speed="13.89" length="0.30" width="3.66" shape="1353.83,540.31 1353.55,540.20"/>
        <lane id=":node_678_end_0_1" index="1" speed="13.89" length="0.30" width="3.66" shape="1355.18,536.91 1354.90,536.80"/>
        <lane id=":node_678_end_0_2" index="2" speed="13.89" length="0.30" width="3.66" shape="1356.54,533.51 1356.26,533.39"/>
    </edge>
    <edge id=":node_681_start_0" function="internal">
        <lane id=":node_681_start_0_0" index="0" speed="13.89" length="0.30" width="3.66" shape="3312.63,1321.19 3312.35,1321.11"/>
    </edge>
    <edge id=":node_683_start_0" function="internal">
        <lane id=":node_683_start_0_0" index="0" speed="13.89" length="8.06" width="3.66" shape="1019.75,403.83 1012.29,400.80"/>
    </edge>
    <edge id=":node_683_start_1" function="internal">
        <lane id=":node_683_start_1_0" index="0" speed="13.89" length="8.00" width="3.66" shape="1019.73,403.74 1012.29,400.80"/>
        <lane id=":node_683_start_1_1" index="1" speed="13.89" length="8.00" width="3.66" shape="1021.07,400.33 1013.63,397.39"/>
    </edge>
    <edge id=":node_685_end_0" function="internal">
        <lane id=":node_685_end_0_0" index="0" speed="13.89" length="0.30" width="3.66" shape="168.36,73.12 168.08,73.02"/>
        <lane id=":node_685_end_0_1" index="1" speed="13.89" length="0.30" width="3.66" shape="169.63,69.68 169.34,69.58"/>
    </edge>
    <edge id=":node_686_start_0" function="internal">
        <lane id=":node_686_start_0_0" index="0" speed="13.89" length="3.34" width="3.66" shape="1110.34,443.60 1107.22,442.41"/>
    </edge>
    <edge id=":node_686_start_1" function="internal">
        <lane id=":node_686_start_1_0" index="0" speed="13.89" length="3.01" width="3.66" shape="1111.71,440.20 1108.92,439.09"/>
        <lane id=":node_686_start_1_1" index="1" speed="13.89" length="3.01" width="3.66" shape="1113.07,436.80 1110.27,435.69"/>
    </edge>
    <edge id=":node_687_end_0" function="internal">
        <lane id=":node_687_end_0_0" index="0" speed="13.89" length="0.10" width="3.66" shape="1265.53,505.22 1265.53,505.22"/>
        <lane id=":node_687_end_0_1" index="1" speed="13.89" length="0.10" width="3.66" shape="1266.88,501.82 1266.88,501.82"/>
        <lane id=":node_687_end_0_2" index="2" speed="13.89" length="0.10" width="3.66" shape="1268.24,498.42 1268.24,498.42"/>
    </edge>
    <edge id=":node_687_start_0" function="internal">
        <lane id=":node_687_start_0_0" index="0" speed="13.89" length="0.30" width="3.66" shape="1269.19,506.68 1268.89,506.56"/>
        <lane id=":node_687_start_0_1" index="1" speed="13.89" length="0.30" width="3.66" shape="1270.52,503.27 1270.25,503.16"/>
        <lane id=":node_687_start_0_2" index="2" speed="13.89" length="0.30" width="3.66" shape="1271.86,499.86 1271.60,499.76"/>
    </edge>
    <edge id=":node_688_end_0" function="internal">
        <lane id=":node_688_end_0_0" index="0" speed="13.89" length="0.30" width="3.66" shape="4026.04,1600.98 4025.75,1600.86"/>
        <lane id=":node_688_end_0_1" index="1" speed="13.89" length="0.30" width="3.66" shape="4027.38,1597.57 4027.10,1597.46"/>
        <lane id=":node_688_end_0_2" index="2" speed="13.89" length="0.30" width="3.66" shape="4028.71,1594.16 4028.45,1594.06"/>
    </edge>
    <edge id=":node_690_end_0" function="internal">
        <lane id=":node_690_end_0_0" index="0" speed="13.89" length="0.30" width="3.66" shape="3253.54,1290.26 3253.27,1290.15"/>
        <lane id=":node_690_end_0_1" index="1" speed="13.89" length="0.30" width="3.66" shape="3254.89,1286.86 3254.60,1286.75"/>
    </edge>
    <edge id=":node_690_start_0" function="internal">
        <lane id=":node_690_start_0_0" index="0" speed="13.89" length="3.00" width="3.66" shape="3316.25,1315.23 3313.45,1314.12"/>
        <lane id=":node_690_start_0_1" index="1" speed="13.89" length="3.00" width="3.66" shape="3317.59,1311.83 3314.81,1310.72"/>
    </edge>
    <edge id=":node_692_end_0" function="internal">
        <lane id=":node_692_end_0_0" index="0" speed="13.89" length="0.30" width="3.66" shape="1647.94,653.02 1647.66,652.91"/>
        <lane id=":node_692_end_0_1" index="1" speed="13.89" length="0.30" width="3.66" shape="1649.29,649.61 1649.01,649.51"/>
    </edge>
    <edge id=":node_695_end_0" function="internal">
        <lane id=":node_695_end_0_0" index="0" speed="13.89" length="3.37" width="3.66" shape="3772.17,1500.18 3769.05,1498.89"/>
    </edge>
    <edge id=":node_695_end_1" function="internal">
        <lane id=":node_695_end_1_0" index="0" speed="13.89" length="3.00" width="3.66" shape="3773.52,1496.78 3770.73,1495.67"/>
        <lane id=":node_695_end_1_1" index="1" speed="13.89" length="3.00" width="3.66" shape="3774.87,1493.38 3772.08,1492.27"/>
    </edge>
    <edge id=":node_695_start_0" function="internal">
        <lane id=":node_695_start_0_0" index="0" speed="13.89" length="0.30" width="3.66" shape="3942.77,1567.91 3942.50,1567.80"/>
        <lane id=":node_695_start_0_1" index="1" speed="13.89" length="0.30" width="3.66" shape="3944.13,1564.51 3943.85,1564.40"/>
        <lane id=":node_695_start_0_2" index="2" speed="13.89" length="0.30" width="3.66" shape="3945.48,1561.11 3945.20,1560.99"/>
    </edge>
    <edge id=":node_697_end_0" function="internal">
        <lane id=":node_697_end_0_0" index="0" speed="13.89" length="0.10" width="3.66" shape="1298.84,518.50 1298.70,518.45"/>
        <lane id=":node_697_end_0_1" index="1" speed="13.89" length="0.10" width="3.66" shape="1300.17,515.09 1300.09,515.06"/>
        <lane id=":node_697_end_0_2" index="2" speed="13.89" length="0.10" width="3.66" shape="1301.51,511.68 1301.48,511.67"/>
    </edge>
    <edge id=":node_700_end_0" function="internal">
        <lane id=":node_700_end_0_0" index="0" speed="13.89" length="8.09" width="3.66" shape="3690.87,1464.12 3683.39,1461.02"/>
    </edge>
    <edge id=":node_700_end_1" function="internal">
        <lane id=":node_700_end_1_0" index="0" speed="13.89" length="8.00" width="3.66" shape="3690.83,1463.99 3683.39,1461.02"/>
        <lane id=":node_700_end_1_1" index="1" speed="13.89" length="8.00" width="3.66" shape="3692.18,1460.58 3684.76,1457.62"/>
    </edge>

    <edge id="663.0" from="node_663_start" to="node_663_end" priority="-1" type="town" shape="5935.19,2348.87 5913.75,2340.42 5851.76,2315.75 5777.05,2286.13 5737.97,2270.49 5700.52,2255.69 5645.09,2233.73 5607.06,2218.67 5566.60,2202.61 5546.34,2194.52 5484.35,2170.01 5444.14,2153.93 5400.49,2136.59 5350.57,2116.83 5297.66,2095.81 5273.30,2086.11 5223.74,2066.53 5184.29,2050.85 5146.40,2035.86 5117.95,2024.54 5092.96,2014.64 5075.20,2007.65 5051.43,1998.11 5018.23,1984.92 4993.73,1975.28 4969.43,1965.60 4902.59,1938.88 4873.68,1927.39 4844.16,1915.75 4800.82,1898.56 4768.79,1885.79 4737.59,1873.51 4711.51,1863.15 4687.19,1853.52 4660.00,1842.72 4626.55,1829.47 4582.61,1811.94 4536.32,1793.56 4467.86,1766.39 4424.45,1749.24 4377.99,1730.87 4323.24,1709.17">
        <lane id="663.0_0" index="0" disallow="all" speed="13.89" length="1732.59" width="3.66" shape="5930.44,2356.83 5910.39,2348.93 5848.39,2324.25 5773.67,2294.63 5734.59,2278.99 5697.16,2264.20 5641.73,2242.24 5603.69,2227.18 5563.22,2211.11 5542.97,2203.02 5480.97,2178.51 5440.76,2162.43 5397.12,2145.10 5347.20,2125.34 5294.28,2104.31 5269.93,2094.62 5220.37,2075.04 5180.92,2059.36 5143.03,2044.37 5114.58,2033.04 5089.60,2023.15 5071.83,2016.15 5048.04,2006.61 5014.87,1993.43 4990.37,1983.79 4966.04,1974.10 4899.20,1947.38 4870.32,1935.90 4840.80,1924.26 4797.44,1907.06 4765.42,1894.30 4734.23,1882.02 4708.14,1871.66 4683.82,1862.03 4656.63,1851.23 4623.17,1837.97 4579.23,1820.44 4532.95,1802.06 4464.49,1774.90 4421.09,1757.75 4374.63,1739.38 4320.01,1717.73" type="shoulder"/>
        <lane id="663.0_1" index="1" speed="13.89" length="1732.59" width="3.66" shape="5931.78,2353.42 5911.73,2345.52 5849.74,2320.85 5775.02,2291.23 5735.95,2275.59 5698.50,2260.79 5643.07,2238.83 5605.04,2223.77 5564.58,2207.71 5544.32,2199.62 5482.33,2175.11 5442.11,2159.03 5398.47,2141.69 5348.55,2121.93 5295.64,2100.91 5271.28,2091.21 5221.72,2071.63 5182.27,2055.95 5144.38,2040.96 5115.93,2029.64 5090.95,2019.75 5073.18,2012.75 5049.40,2003.21 5016.21,1990.02 4991.71,1980.38 4967.40,1970.70 4900.56,1943.98 4871.66,1932.49 4842.14,1920.85 4798.80,1903.66 4766.77,1890.89 4735.58,1878.62 4709.49,1868.25 4685.17,1858.62 4657.98,1847.82 4624.53,1834.57 4580.58,1817.04 4534.30,1798.66 4465.84,1771.49 4422.44,1754.35 4375.97,1735.97 4321.36,1714.33"/>
        <lane id="663.0_2" index="2" speed="13.89" length="1732.59" width="3.66" shape="5933.12,2350.02 5913.08,2342.12 5851.09,2317.45 5776.38,2287.83 5737.30,2272.19 5699.85,2257.39 5644.42,2235.43 5606.39,2220.37 5565.93,2204.31 5545.67,2196.22 5483.68,2171.71 5443.47,2155.63 5399.82,2138.29 5349.90,2118.53 5296.99,2097.51 5272.63,2087.81 5223.07,2068.23 5183.62,2052.55 5145.73,2037.56 5117.28,2026.24 5092.29,2016.34 5074.53,2009.35 5050.76,1999.81 5017.56,1986.62 4993.06,1976.98 4968.76,1967.30 4901.92,1940.58 4873.01,1929.09 4843.49,1917.45 4800.15,1900.26 4768.12,1887.49 4736.92,1875.21 4710.84,1864.85 4686.52,1855.22 4659.33,1844.42 4625.88,1831.17 4581.94,1813.64 4535.65,1795.26 4467.19,1768.09 4423.78,1750.94 4377.32,1732.57 4322.71,1710.93"/>
    </edge>
    <edge id="664.0" from="node_663_end" to="junction_52" priority="-1" type="town" shape="4323.24,1709.17 4318.61,1707.34 4269.04,1687.50 4255.64,1682.18 4248.95,1679.53 4237.19,1674.83 4219.07,1667.71 4208.70,1663.59">
        <lane id="664.0_0" index="0" disallow="all" speed="13.89" length="123.13" width="3.66" shape="4319.74,1717.62 4315.23,1715.84 4265.65,1696.00 4252.27,1690.69 4245.57,1688.03 4233.82,1683.34 4215.72,1676.22 4205.33,1672.09" type="shoulder"/>
        <lane id="664.0_1" index="1" speed="13.89" length="123.13" width="3.66" shape="4321.09,1714.22 4316.59,1712.44 4267.01,1692.60 4253.62,1687.28 4246.92,1684.63 4235.17,1679.93 4217.06,1672.82 4206.68,1668.69"/>
        <lane id="664.0_2" index="2" speed="13.89" length="123.13" width="3.66" shape="4322.43,1710.82 4317.94,1709.04 4268.37,1689.20 4254.97,1683.88 4248.28,1681.23 4236.52,1676.53 4218.40,1669.41 4208.03,1665.29"/>
    </edge>
    <edge id="665.0" from="junction_50" to="node_665_end" priority="-1" type="town" shape="7778.41,3157.35 7671.76,3106.69 7516.97,3028.74 7488.11,3016.05 7464.24,3005.62 7443.45,2996.22 7436.96,2993.31 7405.85,2979.66 7365.81,2962.09 7333.53,2947.93">
        <lane id="665.0_0" index="0" disallow="all" speed="13.89" length="490.01" width="3.66" shape="7772.92,3168.92 7666.13,3118.20 7511.51,3040.33 7482.97,3027.78 7459.04,3017.33 7438.19,3007.90 7431.77,3005.02 7400.71,2991.39 7360.67,2973.82 7329.85,2960.30" type="shoulder"/>
        <lane id="665.0_1" index="1" speed="13.89" length="490.01" width="3.66" shape="7774.49,3165.61 7667.73,3114.91 7513.07,3037.02 7484.44,3024.43 7460.53,3013.98 7439.69,3004.56 7433.25,3001.67 7402.18,2988.04 7362.14,2970.47 7331.32,2956.95"/>
        <lane id="665.0_2" index="2" speed="13.89" length="490.01" width="3.66" shape="7776.06,3162.31 7669.34,3111.62 7514.63,3033.71 7485.91,3021.08 7462.01,3010.64 7441.20,3001.22 7434.74,2998.33 7403.65,2984.69 7363.61,2967.12 7332.79,2953.60"/>
        <lane id="665.0_3" index="3" speed="13.89" length="490.01" width="3.66" shape="7777.63,3159.00 7670.95,3108.34 7516.19,3030.40 7487.38,3017.73 7463.50,3007.29 7442.70,2997.89 7436.22,2994.98 7405.12,2981.34 7365.08,2963.77 7334.26,2950.25"/>
    </edge>
    <edge id="666.0" from="node_665_end" to="node_666_end" priority="-1" type="town" shape="7333.53,2947.93 7301.12,2933.42 7248.68,2910.44 7193.81,2886.22 7174.55,2877.80">
        <lane id="666.0_0" index="0" speed="13.89" length="168.39" width="3.66" shape="7330.05,2952.39 7298.90,2938.44 7246.47,2915.47 7191.60,2891.24 7176.01,2884.43"/>
        <lane id="666.0_1" index="1" speed="13.89" length="168.39" width="3.66" shape="7331.55,2949.05 7300.38,2935.09 7247.95,2912.12 7193.08,2887.89 7177.48,2881.07"/>
    </edge>
    <edge id="671.0" from="junction_112" to="node_671_end" priority="-1" type="town" shape="6062.27,2407.44 6039.70,2399.21 5998.21,2384.67 5961.24,2371.89 5930.42,2361.18">
        <lane id="671.0_0" index="0" speed="13.89" length="139.55" width="3.66" shape="6061.65,2409.16 6039.09,2400.93 5997.61,2386.40 5960.65,2373.62 5929.97,2362.96"/>
    </edge>
    <edge id="672.0" from="node_666_end" to="junction_112" priority="-1" type="town" shape="7174.55,2877.80 7160.26,2871.40 7144.55,2864.43 7125.16,2855.80 7105.22,2846.99 7082.26,2836.91 7044.39,2820.37 7006.21,2803.28 6971.24,2788.00 6942.02,2775.00 6920.59,2765.69 6894.02,2753.99 6854.61,2736.43 6816.56,2719.75 6779.83,2703.62 6751.08,2690.92 6714.79,2674.89 6675.35,2657.61 6637.35,2640.70 6596.42,2622.74 6564.71,2608.74 6525.67,2591.42 6503.28,2581.57 6480.41,2571.56 6453.97,2559.94 6428.44,2548.55 6404.09,2537.99 6379.07,2527.12 6361.65,2519.73 6341.15,2511.13 6322.78,2503.36 6300.19,2494.12 6295.14,2492.01 6273.61,2483.36 6246.85,2472.52 6220.36,2462.15 6195.28,2452.16 6166.96,2440.81 6131.57,2426.76 6107.59,2417.38">
        <lane id="672.0_0" index="0" disallow="all" speed="13.89" length="1157.94" width="3.66" shape="7167.18,2884.52 7156.54,2879.76 7140.84,2872.79 7121.46,2864.16 7101.54,2855.36 7078.60,2845.29 7040.69,2828.74 7002.51,2811.65 6967.55,2796.37 6938.34,2783.38 6916.93,2774.07 6890.32,2762.36 6850.92,2744.80 6812.89,2728.13 6776.15,2711.99 6747.39,2699.29 6711.11,2683.27 6671.66,2665.98 6633.66,2649.07 6592.74,2631.12 6561.01,2617.11 6521.97,2599.79 6499.61,2589.95 6476.74,2579.94 6450.27,2568.31 6424.76,2556.93 6400.45,2546.38 6375.46,2535.53 6358.10,2528.16 6337.60,2519.56 6319.27,2511.81 6296.72,2502.58 6291.68,2500.48 6270.19,2491.84 6243.47,2481.02 6217.00,2470.66 6191.89,2460.66 6163.57,2449.31 6128.22,2435.27 6104.26,2425.90" type="shoulder"/>
        <lane id="672.0_1" index="1" speed="13.89" length="1157.94" width="3.66" shape="7168.68,2881.18 7158.03,2876.41 7142.32,2869.45 7122.94,2860.82 7103.01,2852.01 7080.06,2841.94 7042.17,2825.39 7003.99,2808.30 6969.03,2793.02 6939.82,2780.03 6918.39,2770.72 6891.80,2759.01 6852.40,2741.45 6814.36,2724.78 6777.62,2708.64 6748.87,2695.94 6712.58,2679.92 6673.14,2662.63 6635.14,2645.72 6594.21,2627.77 6562.49,2613.76 6523.45,2596.44 6501.08,2586.60 6478.21,2576.59 6451.75,2564.96 6426.23,2553.58 6401.91,2543.03 6376.91,2532.16 6359.52,2524.79 6339.02,2516.19 6320.68,2508.43 6298.11,2499.20 6293.06,2497.09 6271.56,2488.45 6244.82,2477.62 6218.35,2467.26 6193.25,2457.26 6164.93,2445.91 6129.56,2431.87 6105.59,2422.49"/>
        <lane id="672.0_2" index="2" speed="13.89" length="1157.94" width="3.66" shape="7170.17,2877.84 7159.52,2873.07 7143.81,2866.10 7124.42,2857.47 7104.49,2848.66 7081.53,2838.59 7043.65,2822.04 7005.47,2804.95 6970.51,2789.67 6941.29,2776.68 6919.86,2767.37 6893.28,2755.66 6853.87,2738.10 6815.83,2721.43 6779.10,2705.29 6750.35,2692.59 6714.06,2676.57 6674.62,2659.28 6636.61,2642.37 6595.69,2624.42 6563.97,2610.41 6524.93,2593.09 6502.55,2583.25 6479.68,2573.24 6453.23,2561.61 6427.71,2550.23 6403.37,2539.67 6378.35,2528.80 6360.94,2521.42 6340.44,2512.82 6322.08,2505.05 6299.50,2495.81 6294.45,2493.70 6272.93,2485.06 6246.18,2474.22 6219.69,2463.85 6194.61,2453.86 6166.29,2442.51 6130.90,2428.46 6106.93,2419.08"/>
    </edge>
    <edge id="673.0" from="node_665_end" to="node_666_end" priority="-1" type="town" shape="7330.86,2954.45 7271.35,2926.78 7173.18,2881.12">
        <lane id="673.0_0" index="0" disallow="all" speed="13.89" length="168.22" width="3.66" shape="7327.02,2958.72 7269.04,2931.76 7174.50,2887.78" type="shoulder"/>
        <lane id="673.0_1" index="1" speed="13.89" length="168.22" width="3.66" shape="7328.57,2955.40 7270.58,2928.44 7176.04,2884.47"/>
    </edge>
    <edge id="674.0" from="node_671_end" to="node_674_end" priority="-1" type="town" shape="5930.42,2361.18 5912.74,2355.05 5889.93,2347.01 5869.91,2340.10 5843.49,2330.99 5825.10,2324.67">
        <lane id="674.0_0" index="0" speed="13.89" length="111.31" width="3.66" shape="5929.68,2362.86 5912.14,2356.78 5889.33,2348.74 5869.32,2341.83 5842.90,2332.72 5824.51,2326.40"/>
    </edge>
    <edge id="675.0" from="junction_112" to="node_663_start" priority="-1" type="town" shape="6064.72,2400.37 6032.41,2387.49 5998.92,2374.20 5965.93,2361.18 5935.19,2348.87">
        <lane id="675.0_0" index="0" speed="13.89" length="138.01" width="3.66" shape="6062.80,2405.51 6030.39,2392.59 5996.90,2379.30 5963.91,2366.28 5934.55,2354.53"/>
        <lane id="675.0_1" index="1" speed="13.89" length="138.01" width="3.66" shape="6064.16,2402.11 6031.74,2389.19 5998.25,2375.90 5965.26,2362.88 5935.92,2351.13"/>
    </edge>
    <edge id="676.0" from="node_676_start" to="junction_52" priority="-1" type="town" shape="4392.97,1757.23 4263.93,1699.69 4247.01,1692.23 4244.27,1691.03 4232.79,1685.89 4218.42,1679.52 4204.47,1673.39">
        <lane id="676.0_0" index="0" speed="13.89" length="205.85" width="3.66" shape="4392.23,1758.90 4263.19,1701.36 4246.28,1693.90 4243.53,1692.70 4232.05,1687.56 4217.69,1681.19 4204.15,1675.24"/>
    </edge>
    <edge id="678.0" from="junction_51" to="node_678_end" priority="-1" type="town" shape="1446.86,567.31 1434.32,562.35 1423.34,558.05 1407.11,551.60 1388.21,544.14 1372.64,537.95 1357.07,531.75">
        <lane id="678.0_0" index="0" disallow="all" speed="13.89" length="96.44" width="3.66" shape="1442.15,579.22 1429.63,574.27 1418.64,569.96 1402.40,563.51 1383.50,556.05 1367.91,549.85 1352.48,543.71" type="shoulder"/>
        <lane id="678.0_1" index="1" speed="13.89" length="96.44" width="3.66" shape="1443.50,575.82 1430.97,570.86 1419.98,566.56 1403.75,560.11 1384.85,552.65 1369.26,546.45 1353.83,540.31"/>
        <lane id="678.0_2" index="2" speed="13.89" length="96.44" width="3.66" shape="1444.85,572.42 1432.31,567.46 1421.33,563.16 1405.09,556.70 1386.19,549.24 1370.62,543.05 1355.18,536.91"/>
        <lane id="678.0_3" index="3" speed="13.89" length="96.44" width="3.66" shape="1446.19,569.01 1433.65,564.05 1422.67,559.75 1406.44,553.30 1387.54,545.84 1371.97,539.65 1356.54,533.51"/>
    </edge>
    <edge id="681.0" from="node_681_start" to="node_681_end" priority="-1" type="town" shape="3313.02,1319.40 3304.73,1316.88 3289.71,1312.34 3270.28,1306.56 3252.07,1300.90 3234.86,1295.37 3221.37,1290.90">
        <lane id="681.0_0" index="0" speed="13.89" length="95.88" width="3.66" shape="3312.35,1321.11 3304.20,1318.63 3289.19,1314.09 3269.75,1308.31 3251.52,1302.64 3234.30,1297.11 3220.80,1292.64"/>
    </edge>
    <edge id="683.0" from="node_683_start" to="junction_113" priority="-1" type="town" shape="1018.01,397.16 988.54,385.50 963.21,375.22 936.20,364.00 909.13,352.76 879.87,340.77 854.32,330.41 831.97,321.62 824.01,318.42">
        <lane id="683.0_0" index="0" speed="13.89" length="205.41" width="3.66" shape="1012.29,400.80 986.50,390.60 961.13,380.30 934.10,369.07 907.04,357.84 877.80,345.85 852.29,335.51 829.96,326.73 821.97,323.51"/>
        <lane id="683.0_1" index="1" speed="13.89" length="205.41" width="3.66" shape="1013.63,397.39 987.86,387.20 962.52,376.91 935.50,365.69 908.44,354.45 879.18,342.46 853.65,332.11 831.30,323.32 823.33,320.12"/>
    </edge>
    <edge id="685.0" from="node_703_end" to="node_685_end" priority="-1" type="town" shape="177.99,66.93 171.38,64.48">
        <lane id="685.0_0" index="0" disallow="all" speed="13.89" length="6.92" width="3.66" shape="173.54,78.94 167.09,76.55" type="shoulder"/>
        <lane id="685.0_1" index="1" speed="13.89" length="6.92" width="3.66" shape="174.87,75.53 168.36,73.12"/>
        <lane id="685.0_2" index="2" speed="13.89" length="6.92" width="3.66" shape="176.15,72.10 169.63,69.68"/>
        <lane id="685.0_3" index="3" disallow="all" speed="13.89" length="6.92" width="3.66" shape="177.36,68.65 170.90,66.25" type="shoulder"/>
    </edge>
    <edge id="686.0" from="node_686_start" to="node_683_start" priority="-1" type="town" shape="1112.39,434.56 1094.51,427.48 1074.44,419.59 1055.68,412.11 1038.11,405.16 1023.14,399.18 1018.01,397.16">
        <lane id="686.0_0" index="0" speed="13.89" length="95.94" width="3.66" shape="1108.92,439.09 1092.50,432.59 1072.42,424.69 1053.66,417.21 1036.09,410.26 1021.11,404.28 1019.73,403.74"/>
        <lane id="686.0_1" index="1" speed="13.89" length="95.94" width="3.66" shape="1110.27,435.69 1093.84,429.18 1073.77,421.29 1055.01,413.81 1037.44,406.86 1022.47,400.88 1021.07,400.33"/>
    </edge>
    <edge id="687.0" from="node_687_start" to="node_687_end" priority="-1" type="town">
        <lane id="687.0_0" index="0" disallow="all" speed="13.89" length="3.62" width="3.66" shape="1267.54,509.96 1264.17,508.62" type="shoulder"/>
        <lane id="687.0_1" index="1" speed="13.89" length="3.62" width="3.66" shape="1268.89,506.56 1265.53,505.22"/>
        <lane id="687.0_2" index="2" speed="13.89" length="3.62" width="3.66" shape="1270.25,503.16 1266.88,501.82"/>
        <lane id="687.0_3" index="3" speed="13.89" length="3.62" width="3.66" shape="1271.60,499.76 1268.24,498.42"/>
    </edge>
    <edge id="688.0" from="junction_52" to="node_688_end" priority="-1" type="town" shape="4113.97,1625.94 4104.56,1622.30 4095.47,1618.61 4085.71,1614.73 4074.37,1610.30 4066.39,1607.06 4057.60,1603.61 4039.82,1596.55 4029.25,1592.41">
        <lane id="688.0_0" index="0" disallow="all" speed="13.89" length="91.01" width="3.66" shape="4109.35,1637.89 4099.84,1634.21 4090.70,1630.50 4081.02,1626.65 4069.63,1622.20 4061.64,1618.96 4052.89,1615.52 4035.12,1608.46 4024.71,1604.39" type="shoulder"/>
        <lane id="688.0_1" index="1" speed="13.89" length="91.01" width="3.66" shape="4110.67,1634.47 4101.19,1630.81 4092.06,1627.10 4082.36,1623.24 4070.99,1618.80 4063.00,1615.56 4054.24,1612.12 4036.46,1605.06 4026.04,1600.98"/>
        <lane id="688.0_2" index="2" speed="13.89" length="91.01" width="3.66" shape="4111.99,1631.06 4102.54,1627.40 4093.43,1623.70 4083.70,1619.84 4072.34,1615.40 4064.36,1612.16 4055.59,1608.72 4037.81,1601.66 4027.38,1597.57"/>
        <lane id="688.0_3" index="3" speed="13.89" length="91.01" width="3.66" shape="4113.31,1627.65 4103.89,1624.00 4094.79,1620.31 4085.04,1616.43 4073.70,1612.00 4065.72,1608.76 4056.93,1605.31 4039.15,1598.25 4028.71,1594.16"/>
    </edge>
    <edge id="690.0" from="node_690_start" to="node_690_end" priority="-1" type="town" shape="3316.87,1309.58 3306.98,1305.61 3295.96,1301.23 3284.59,1296.67 3273.73,1292.40 3262.98,1288.08 3255.41,1285.10">
        <lane id="690.0_0" index="0" disallow="all" speed="13.89" length="64.48" width="3.66" shape="3312.09,1317.52 3303.59,1314.11 3292.57,1309.73 3281.22,1305.17 3270.35,1300.90 3259.60,1296.58 3252.20,1293.67" type="shoulder"/>