<?xml version='1.0' encoding='utf-8'?>
<edges>
    <edge id="663.0" from="node_663_start" to="node_663_end" numLanes="3" speed="13.89" type="town" shape="577387.20,3263157.07 577365.76,3263148.62 577365.76,3263148.62 577303.77,3263123.95 577303.77,3263123.95 577229.06,3263094.33 577229.06,3263094.33 577189.98,3263078.69 577189.98,3263078.69 577152.53,3263063.89 577152.53,3263063.89 577097.10,3263041.93 577097.10,3263041.93 577059.07,3263026.87 577059.07,3263026.87 577018.61,3263010.81 577018.61,3263010.81 576998.35,3263002.72 576998.35,3263002.72 576936.36,3262978.21 576936.36,3262978.21 576896.15,3262962.13 576896.15,3262962.13 576852.50,3262944.79 576852.50,3262944.79 576802.58,3262925.03 576802.58,3262925.03 576749.67,3262904.01 576749.67,3262904.01 576725.31,3262894.31 576725.31,3262894.31 576675.75,3262874.73 576675.75,3262874.73 576636.30,3262859.05 576636.30,3262859.05 576598.41,3262844.06 576598.41,3262844.06 576569.96,3262832.74 576569.96,3262832.74 576544.97,3262822.84 576544.97,3262822.84 576527.21,3262815.85 576527.21,3262815.85 576503.44,3262806.31 576503.44,3262806.31 576470.24,3262793.12 576470.24,3262793.12 576445.74,3262783.48 576445.74,3262783.48 576421.44,3262773.80 576421.44,3262773.80 576354.60,3262747.08 576354.60,3262747.08 576325.69,3262735.59 576325.69,3262735.59 576296.17,3262723.95 576296.17,3262723.95 576252.83,3262706.76 576252.83,3262706.76 576220.80,3262693.99 576220.80,3262693.99 576189.60,3262681.71 576189.60,3262681.71 576163.52,3262671.35 576163.52,3262671.35 576139.20,3262661.72 576139.20,3262661.72 576112.01,3262650.92 576112.01,3262650.92 576078.56,3262637.67 576078.56,3262637.67 576034.62,3262620.14 576034.62,3262620.14 575988.33,3262601.76 575988.33,3262601.76 575919.87,3262574.59 575919.87,3262574.59 575876.46,3262557.44 575876.46,3262557.44 575830.00,3262539.07 575830.00,3262539.07 575775.25,3262517.37">
        <lane index="0" width="3.66" type="shoulder" disallow="all" />
        <lane index="1" width="3.66" />
        <lane index="2" width="3.66" />
    </edge>
    <edge id="664.0" from="node_663_end" to="junction_52" numLanes="3" speed="13.89" type="town" shape="575775.25,3262517.37 575770.62,3262515.54 575770.62,3262515.54 575721.05,3262495.70 575721.05,3262495.70 575707.65,3262490.38 575707.65,3262490.38 575700.96,3262487.73 575700.96,3262487.73 575689.20,3262483.03 575689.20,3262483.03 575671.08,3262475.91 575671.08,3262475.91 575660.71,3262471.79">
        <lane index="0" width="3.66" type="shoulder" disallow="all" />
        <lane index="1" width="3.66" />
        <lane index="2" width="3.66" />
    </edge>
    <edge id="665.0" from="junction_50" to="node_665_end" numLanes="4" speed="13.89" type="town" shape="578968.98,3263836.94 578940.12,3263824.25 578940.12,3263824.25 578916.25,3263813.82 578916.25,3263813.82 578895.46,3263804.42 578895.46,3263804.42 578888.97,3263801.51 578888.97,3263801.51 578857.86,3263787.86 578857.86,3263787.86 578817.82,3263770.29 578817.82,3263770.29 578785.54,3263756.13">
        <lane index="0" width="3.66" type="shoulder" disallow="all" />
        <lane index="1" width="3.66" />
        <lane index="2" width="3.66" />
        <lane index="3" width="3.66" />
    </edge>
    <edge id="666.0" from="node_665_end" to="node_666_end" numLanes="2" speed="13.89" type="town" shape="578785.54,3263756.13 578753.13,3263741.62 578753.13,3263741.62 578700.69,3263718.64 578700.69,3263718.64 578645.82,3263694.42 578645.82,3263694.42 578626.56,3263686.00">
        <lane index="0" width="3.66" />
        <lane index="1" width="3.66" />
    </edge>
    <edge id="671.0" from="junction_112" to="node_671_end" numLanes="1" speed="13.89" type="town" shape="577514.28,3263215.64 577491.71,3263207.41 577491.71,3263207.41 577450.22,3263192.87 577450.22,3263192.87 577413.25,3263180.09 577413.25,3263180.09 577382.43,3263169.38">
        <lane index="0" width="3.66" />
    </edge>
    <edge id="672.0" from="node_666_end" to="junction_112" numLanes="3" speed="13.89" type="town" shape="578626.56,3263686.00 578612.27,3263679.60 578612.27,3263679.60 578596.56,3263672.63 578596.56,3263672.63 578577.17,3263664.00 578577.17,3263664.00 578557.23,3263655.19 578557.23,3263655.19 578534.27,3263645.11 578534.27,3263645.11 578496.40,3263628.57 578496.40,3263628.57 578458.22,3263611.48 578458.22,3263611.48 578423.25,3263596.20 578423.25,3263596.20 578394.03,3263583.20 578394.03,3263583.20 578372.60,3263573.89 578372.60,3263573.89 578346.03,3263562.19 578346.03,3263562.19 578306.62,3263544.63 578306.62,3263544.63 578268.57,3263527.95 578268.57,3263527.95 578231.84,3263511.82 578231.84,3263511.82 578203.09,3263499.12 578203.09,3263499.12 578166.80,3263483.09 578166.80,3263483.09 578127.36,3263465.81 578127.36,3263465.81 578089.36,3263448.90 578089.36,3263448.90 578048.43,3263430.94 578048.43,3263430.94 578016.72,3263416.94 578016.72,3263416.94 577977.68,3263399.62 577977.68,3263399.62 577955.29,3263389.77 577955.29,3263389.77 577932.42,3263379.76 577932.42,3263379.76 577905.98,3263368.14 577905.98,3263368.14 577880.45,3263356.75 577880.45,3263356.75 577856.10,3263346.19 577856.10,3263346.19 577831.08,3263335.32 577831.08,3263335.32 577813.66,3263327.93 577813.66,3263327.93 577793.16,3263319.33 577793.16,3263319.33 577774.79,3263311.56 577774.79,3263311.56 577752.20,3263302.32 577752.20,3263302.32 577747.15,3263300.21 577747.15,3263300.21 577725.62,3263291.56 577725.62,3263291.56 577698.86,3263280.72 577698.86,3263280.72 577672.37,3263270.35 577672.37,3263270.35 577647.29,3263260.36 577647.29,3263260.36 577618.97,3263249.01 577618.97,3263249.01 577583.58,3263234.96 577583.58,3263234.96 577559.60,3263225.58">
        <lane index="0" width="3.66" type="shoulder" disallow="all" />
        <lane index="1" width="3.66" />
        <lane index="2" width="3.66" />
    </edge>
    <edge id="673.0" from="node_665_end" to="node_666_end" numLanes="2" speed="13.89" type="town" shape="578782.87,3263762.65 578723.36,3263734.98 578723.36,3263734.98 578625.19,3263689.32">
        <lane index="0" width="3.66" type="shoulder" disallow="all" />
        <lane index="1" width="3.66" />
    </edge>
    <edge id="674.0" from="node_671_end" to="node_674_end" numLanes="1" speed="13.89" type="town" shape="577382.43,3263169.38 577364.75,3263163.25 577364.75,3263163.25 577341.94,3263155.21 577341.94,3263155.21 577321.92,3263148.30 577321.92,3263148.30 577295.50,3263139.19 577295.50,3263139.19 577277.11,3263132.87">
        <lane index="0" width="3.66" />
    </edge>
    <edge id="675.0" from="junction_112" to="node_663_start" numLanes="2" speed="13.89" type="town" shape="577516.73,3263208.57 577484.42,3263195.69 577484.42,3263195.69 577450.93,3263182.40 577450.93,3263182.40 577417.94,3263169.38 577417.94,3263169.38 577387.20,3263157.07">
        <lane index="0" width="3.66" />
        <lane index="1" width="3.66" />
    </edge>
    <edge id="676.0" from="node_676_start" to="junction_52" numLanes="1" speed="13.89" type="town" shape="575844.98,3262565.43 575715.94,3262507.89 575715.94,3262507.89 575699.02,3262500.43 575699.02,3262500.43 575696.28,3262499.23 575696.28,3262499.23 575684.80,3262494.09 575684.80,3262494.09 575670.43,3262487.72 575670.43,3262487.72 575656.48,3262481.59">
        <lane index="0" width="3.66" />
    </edge>
    <edge id="678.0" from="junction_51" to="node_678_end" numLanes="4" speed="13.89" type="town" shape="572898.87,3261375.51 572886.33,3261370.55 572886.33,3261370.55 572875.35,3261366.25 572875.35,3261366.25 572859.12,3261359.80 572859.12,3261359.80 572840.22,3261352.34 572840.22,3261352.34 572824.65,3261346.15 572824.65,3261346.15 572809.08,3261339.95">
        <lane index="0" width="3.66" type="shoulder" disallow="all" />
        <lane index="1" width="3.66" />
        <lane index="2" width="3.66" />
        <lane index="3" width="3.66" />
    </edge>
    <edge id="681.0" from="node_681_start" to="node_681_end" numLanes="1" speed="13.89" type="town" shape="574765.03,3262127.60 574756.74,3262125.08 574756.74,3262125.08 574741.72,3262120.54 574741.72,3262120.54 574722.29,3262114.76 574722.29,3262114.76 574704.08,3262109.10 574704.08,3262109.10 574686.87,3262103.57 574686.87,3262103.57 574673.38,3262099.10">
        <lane index="0" width="3.66" />
    </edge>
    <edge id="683.0" from="node_683_start" to="junction_113" numLanes="2" speed="13.89" type="town" shape="572470.02,3261205.36 572440.55,3261193.70 572440.55,3261193.70 572415.22,3261183.42 572415.22,3261183.42 572388.21,3261172.20 572388.21,3261172.20 572361.14,3261160.96 572361.14,3261160.96 572331.88,3261148.97 572331.88,3261148.97 572306.33,3261138.61 572306.33,3261138.61 572283.98,3261129.82 572283.98,3261129.82 572276.02,3261126.62">
        <lane index="0" width="3.66" />
        <lane index="1" width="3.66" />
    </edge>
    <edge id="685.0" from="node_703_end" to="node_685_end" numLanes="4" speed="13.89" type="town" shape="571630.00,3260875.13 571623.39,3260872.68">
        <lane index="0" width="3.66" type="shoulder" disallow="all" />
        <lane index="1" width="3.66" />
        <lane index="2" width="3.66" />
        <lane index="3" width="3.66" type="shoulder" disallow="all" />
    </edge>
    <edge id="686.0" from="node_686_start" to="node_683_start" numLanes="2" speed="13.89" type="town" shape="572564.40,3261242.76 572546.52,3261235.68 572546.52,3261235.68 572526.45,3261227.79 572526.45,3261227.79 572507.69,3261220.31 572507.69,3261220.31 572490.12,3261213.36 572490.12,3261213.36 572475.15,3261207.38 572475.15,3261207.38 572470.02,3261205.36">
        <lane index="0" width="3.66" />
        <lane index="1" width="3.66" />
    </edge>
    <edge id="687.0" from="node_687_start" to="node_687_end" numLanes="4" speed="13.89" type="town" shape="572724.41,3261306.31 572720.92,3261304.92">
        <lane index="0" width="3.66" type="shoulder" disallow="all" />
        <lane index="1" width="3.66" />
        <lane index="2" width="3.66" />
        <lane index="3" width="3.66" />
    </edge>
    <edge id="688.0" from="junction_52" to="node_688_end" numLanes="4" speed="13.89" type="town" shape="575565.98,3262434.14 575556.57,3262430.50 575556.57,3262430.50 575547.48,3262426.81 575547.48,3262426.81 575537.72,3262422.93 575537.72,3262422.93 575526.38,3262418.50 575526.38,3262418.50 575518.40,3262415.26 575518.40,3262415.26 575509.61,3262411.81 575509.61,3262411.81 575491.83,3262404.75 575491.83,3262404.75 575481.26,3262400.61">
        <lane index="0" width="3.66" type="shoulder" disallow="all" />
        <lane index="1" width="3.66" />
        <lane index="2" width="3.66" />
        <lane index="3" width="3.66" />
    </edge>
    <edge id="690.0" from="node_690_start" to="node_690_end" numLanes="3" speed="13.89" type="town" shape="574768.88,3262117.78 574758.99,3262113.81 574758.99,3262113.81 574747.97,3262109.43 574747.97,3262109.43 574736.60,3262104.87 574736.60,3262104.87 574725.74,3262100.60 574725.74,3262100.60 574714.99,3262096.28 574714.99,3262096.28 574707.42,3262093.30">
        <lane index="0" width="3.66" type="shoulder" disallow="all" />
        <lane index="1" width="3.66" />
        <lane index="2" width="3.66" />
    </edge>
    <edge id="692.0" from="node_690_end" to="node_692_end" numLanes="3" speed="13.89" type="town" shape="574707.42,3262093.30 574691.99,3262087.24 574691.99,3262087.24 574674.75,3262080.36 574674.75,3262080.36 574658.93,3262074.04 574658.93,3262074.04 574642.53,3262067.60 574642.53,3262067.60 574626.40,3262061.17 574626.40,3262061.17 574608.89,3262054.20 574608.89,3262054.20 574592.38,3262047.71 574592.38,3262047.71 574575.00,3262040.83 574575.00,3262040.83 574560.80,3262035.18 574560.80,3262035.18 574547.41,3262029.80 574547.41,3262029.80 574532.35,3262023.90 574532.35,3262023.90 574516.81,3262017.74 574516.81,3262017.74 574500.64,3262011.31 574500.64,3262011.31 574481.67,3262003.79 574481.67,3262003.79 574466.14,3261997.63 574466.14,3261997.63 574448.39,3261990.52 574448.39,3261990.52 574431.84,3261984.01 574431.84,3261984.01 574413.80,3261976.88 574413.80,3261976.88 574398.65,3261970.82 574398.65,3261970.82 574374.16,3261961.05 574374.16,3261961.05 574357.50,3261954.50 574357.50,3261954.50 574337.93,3261946.71 574337.93,3261946.71 574319.02,3261939.22 574319.02,3261939.22 574302.71,3261932.76 574302.71,3261932.76 574278.76,3261923.26 574278.76,3261923.26 574259.43,3261915.51 574259.43,3261915.51 574237.83,3261907.08 574237.83,3261907.08 574217.01,3261898.70 574217.01,3261898.70 574195.46,3261890.23 574195.46,3261890.23 574176.15,3261882.52 574176.15,3261882.52 574158.70,3261875.64 574158.70,3261875.64 574137.73,3261867.26 574137.73,3261867.26 574111.63,3261856.96 574111.63,3261856.96 574094.13,3261849.98 574094.13,3261849.98 574070.49,3261840.62 574070.49,3261840.62 574044.15,3261830.15 574044.15,3261830.15 574025.31,3261822.65 574025.31,3261822.65 574003.49,3261814.01 574003.49,3261814.01 573977.52,3261803.65 573977.52,3261803.65 573948.15,3261792.03 573948.15,3261792.03 573924.67,3261782.72 573924.67,3261782.72 573898.32,3261772.29 573898.32,3261772.29 573873.87,3261762.60 573873.87,3261762.60 573850.38,3261753.27 573850.38,3261753.27 573827.82,3261744.29 573827.82,3261744.29 573801.41,3261733.83 573801.41,3261733.83 573775.71,3261723.63 573775.71,3261723.63 573749.73,3261713.25 573749.73,3261713.25 573726.24,3261703.92 573726.24,3261703.92 573704.33,3261695.28 573704.33,3261695.28 573681.05,3261686.06 573681.05,3261686.06 573657.40,3261676.63 573657.40,3261676.63 573635.29,3261667.88 573635.29,3261667.88 573613.35,3261659.15 573613.35,3261659.15 573585.04,3261647.92 573585.04,3261647.92 573559.95,3261637.92 573559.95,3261637.92 573535.50,3261628.23 573535.50,3261628.23 573510.99,3261618.56 573510.99,3261618.56 573490.40,3261610.30 573490.40,3261610.30 573463.82,3261599.73 573463.82,3261599.73 573439.00,3261589.94 573439.00,3261589.94 573412.42,3261579.42 573412.42,3261579.42 573385.28,3261568.60 573385.28,3261568.60 573359.95,3261558.52 573359.95,3261558.52 573333.62,3261548.11 573333.62,3261548.11 573307.70,3261537.84 573307.70,3261537.84 573281.66,3261527.41 573281.66,3261527.41 573259.39,3261518.60 573259.39,3261518.60 573233.70,3261508.52 573233.70,3261508.52 573211.90,3261499.74 573211.90,3261499.74 573184.45,3261488.91 573184.45,3261488.91 573159.79,3261479.07 573159.79,3261479.07 573138.40,3261470.54 573138.40,3261470.54 573115.94,3261461.62 573115.94,3261461.62 573101.83,3261456.06">
        <lane index="0" width="3.66" type="shoulder" disallow="all" />
        <lane index="1" width="3.66" />
        <lane index="2" width="3.66" />
    </edge>
    <edge id="694.0" from="node_692_end" to="junction_51" numLanes="3" speed="13.89" type="town" shape="573101.83,3261456.06 573074.32,3261445.09 573074.32,3261445.09 573045.69,3261433.81 573045.69,3261433.81 573019.74,3261423.52 573019.74,3261423.52 572995.68,3261413.97 572995.68,3261413.97 572988.27,3261410.99">
        <lane index="0" width="3.66" type="shoulder" disallow="all" />
        <lane index="1" width="3.66" />
        <lane index="2" width="3.66" />
    </edge>
    <edge id="695.0" from="node_695_start" to="node_695_end" numLanes="4" speed="13.89" type="town" shape="575398.02,3262367.55 575396.43,3262366.92 575396.43,3262366.92 575367.14,3262355.30 575367.14,3262355.30 575342.72,3262345.61 575342.72,3262345.61 575318.29,3262335.89 575318.29,3262335.89 575296.11,3262327.09 575296.11,3262327.09 575278.66,3262320.15 575278.66,3262320.15 575250.80,3262309.09 575250.80,3262309.09 575226.10,3262299.30">
        <lane index="0" width="3.66" type="shoulder" disallow="all" />
        <lane index="1" width="3.66" />
        <lane index="2" width="3.66" />
        <lane index="3" width="3.66" />
    </edge>
    <edge id="696.0" from="node_687_end" to="node_686_start" numLanes="4" speed="13.89" type="town" shape="572720.92,3261304.92 572696.03,3261295.01 572696.03,3261295.01 572679.02,3261288.28 572679.02,3261288.28 572654.27,3261278.44 572654.27,3261278.44 572632.00,3261269.63 572632.00,3261269.63 572607.47,3261259.95 572607.47,3261259.95 572585.48,3261251.22 572585.48,3261251.22 572564.40,3261242.76">
        <lane index="0" width="3.66" type="shoulder" disallow="all" />
        <lane index="1" width="3.66" />
        <lane index="2" width="3.66" />
        <lane index="3" width="3.66" />
    </edge>
    <edge id="697.0" from="node_678_end" to="node_697_end" numLanes="4" speed="13.89" type="town" shape="572809.08,3261339.95 572792.70,3261333.43 572792.70,3261333.43 572776.31,3261326.92 572776.31,3261326.92 572763.53,3261321.84 572763.53,3261321.84 572754.18,3261318.18">
        <lane index="0" width="3.66" type="shoulder" disallow="all" />
        <lane index="1" width="3.66" />
        <lane index="2" width="3.66" />
        <lane index="3" width="3.66" />
    </edge>
    <edge id="698.0" from="node_697_end" to="node_687_start" numLanes="4" speed="13.89" type="town" shape="572754.18,3261318.18 572749.67,3261316.33 572749.67,3261316.33 572732.91,3261309.65 572732.91,3261309.65 572724.41,3261306.31">
        <lane index="0" width="3.66" type="shoulder" disallow="all" />
        <lane index="1" width="3.66" />
        <lane index="2" width="3.66" />
        <lane index="3" width="3.66" />
    </edge>
    <edge id="699.0" from="node_688_end" to="node_695_start" numLanes="4" speed="13.89" type="town" shape="575481.26,3262400.61 575461.68,3262392.82 575461.68,3262392.82 575439.82,3262384.11 575439.82,3262384.11 575418.48,3262375.71 575418.48,3262375.71 575398.02,3262367.55">
        <lane index="0" width="3.66" type="shoulder" disallow="all" />
        <lane index="1" width="3.66" />
        <lane index="2" width="3.66" />
        <lane index="3" width="3.66" />
    </edge>
    <edge id="700.0" from="node_695_end" to="node_700_end" numLanes="2" speed="13.89" type="town" shape="575226.10,3262299.30 575200.29,3262289.07 575200.29,3262289.07 575166.12,3262275.48 575166.12,3262275.48 575141.13,3262265.61">
        <lane index="0" width="3.66" />
        <lane index="1" width="3.66" />
    </edge>
    <edge id="701.0" from="node_695_end" to="node_700_end" numLanes="2" speed="13.89" type="town" shape="575223.47,3262306.16 575139.80,3262268.95">
        <lane index="0" width="3.66" type="shoulder" disallow="all" />
        <lane index="1" width="3.66" />
    </edge>
    <edge id="703.0" from="junction_113" to="node_685_start" numLanes="2" speed="13.89" type="town" shape="572192.10,3261093.25 572182.85,3261089.61 572182.85,3261089.61 572166.68,3261083.19 572166.68,3261083.19 572146.64,3261075.30 572146.64,3261075.30 572130.54,3261068.91 572130.54,3261068.91 572109.90,3261060.64 572109.90,3261060.64 572089.04,3261052.36 572089.04,3261052.36 572072.08,3261045.65 572072.08,3261045.65 572054.50,3261038.68 572054.50,3261038.68 572037.78,3261032.01 572037.78,3261032.01 572023.38,3261026.28 572023.38,3261026.28 572009.03,3261020.57 572009.03,3261020.57 571996.51,3261015.57 571996.51,3261015.57 571983.61,3261010.47 571983.61,3261010.47 571969.65,3261004.90 571969.65,3261004.90 571955.55,3260999.33 571955.55,3260999.33 571938.31,3260992.56 571938.31,3260992.56 571916.90,3260984.25 571916.90,3260984.25 571901.27,3260978.15 571901.27,3260978.15 571883.05,3260971.31 571883.05,3260971.31 571871.86,3260967.11 571871.86,3260967.11 571856.21,3260961.31 571856.21,3260961.31 571840.35,3260955.52 571840.35,3260955.52 571826.06,3260950.28 571826.06,3260950.28 571812.27,3260945.32 571812.27,3260945.32 571791.38,3260937.77 571791.38,3260937.77 571776.19,3260932.26 571776.19,3260932.26 571756.62,3260925.16 571756.62,3260925.16 571738.69,3260918.65 571738.69,3260918.65 571715.85,3260910.32 571715.85,3260910.32 571695.87,3260902.77 571695.87,3260902.77 571674.40,3260894.70 571674.40,3260894.70 571650.46,3260885.67 571650.46,3260885.67 571629.15,3260877.60">
        <lane index="0" width="3.66" />
        <lane index="1" width="3.66" />
    </edge>
    <edge id="706.0" from="junction_113" to="node_706_end" numLanes="1" speed="13.89" type="town" shape="572189.33,3261099.34 572183.00,3261097.10 572183.00,3261097.10 572167.42,3261091.60 572167.42,3261091.60 572146.77,3261084.43 572146.77,3261084.43 572129.07,3261078.28 572129.07,3261078.28 572107.28,3261070.60 572107.28,3261070.60 572090.40,3261064.76 572090.40,3261064.76 572073.63,3261058.94 572073.63,3261058.94 572050.19,3261050.71 572050.19,3261050.71 572026.83,3261042.60 572026.83,3261042.60 572003.99,3261034.56 572003.99,3261034.56 571990.00,3261029.83 571990.00,3261029.83 571974.35,3261024.87 571974.35,3261024.87 571950.29,3261017.14 571950.29,3261017.14 571927.68,3261009.38 571927.68,3261009.38 571901.79,3261000.29 571901.79,3261000.29 571874.94,3260991.09 571874.94,3260991.09 571859.69,3260985.95">
        <lane index="0" width="3.66" />
    </edge>
    <edge id="708.0" from="node_700_end" to="junction_114" numLanes="3" speed="13.89" type="town" shape="575141.13,3262265.61 575131.34,3262261.67 575131.34,3262261.67 575109.76,3262253.15 575109.76,3262253.15 575083.08,3262242.54 575083.08,3262242.54 575058.62,3262232.86 575058.62,3262232.86 575034.56,3262223.23 575034.56,3262223.23 575003.14,3262210.74 575003.14,3262210.74 574973.58,3262199.06 574973.58,3262199.06 574953.36,3262190.91 574953.36,3262190.91 574927.71,3262180.72">
        <lane index="0" width="3.66" type="shoulder" disallow="all" />
        <lane index="1" width="3.66" />
        <lane index="2" width="3.66" />
    </edge>
    <edge id="709.0" from="junction_114" to="node_690_start" numLanes="2" speed="13.89" type="town" shape="574812.91,3262135.29 574799.21,3262129.75 574799.21,3262129.75 574786.20,3262124.60 574786.20,3262124.60 574768.88,3262117.78">
        <lane index="0" width="3.66" />
        <lane index="1" width="3.66" />
    </edge>
    <edge id="710.0" from="node_686_start" to="node_683_start" numLanes="2" speed="13.89" type="town" shape="572561.53,3261249.62 572539.02,3261239.69 572539.02,3261239.69 572500.36,3261222.30 572500.36,3261222.30 572468.70,3261208.73">
        <lane index="0" width="3.66" type="shoulder" disallow="all" />
        <lane index="1" width="3.66" />
    </edge>
    <edge id="712.0" from="junction_114" to="node_681_start" numLanes="1" speed="13.89" type="town" shape="574810.04,3262141.94 574803.07,3262139.69 574803.07,3262139.69 574793.00,3262136.33 574793.00,3262136.33 574784.27,3262133.60 574784.27,3262133.60 574771.42,3262129.56 574771.42,3262129.56 574765.03,3262127.60">
        <lane index="0" width="3.66" />
    </edge>
    <edge id="713.0" from="node_713_start" to="junction_51" numLanes="1" speed="13.89" type="town" shape="573151.37,3261495.80 573064.30,3261457.02 573064.30,3261457.02 573032.94,3261442.85 573032.94,3261442.85 573015.49,3261435.04 573015.49,3261435.04 572997.95,3261427.11 572997.95,3261427.11 572986.56,3261422.12 572986.56,3261422.12 572983.88,3261420.79">
        <lane index="0" width="3.66" />
    </edge>
    <edge id="882.0" from="node_882_start" to="junction_50" numLanes="1" speed="13.89" type="town" shape="579660.56,3264138.01 579647.01,3264132.07 579647.01,3264132.07 579604.86,3264114.31 579604.86,3264114.31 579547.23,3264089.97 579547.23,3264089.97 579505.51,3264072.09 579505.51,3264072.09 579470.95,3264057.50 579470.95,3264057.50 579468.84,3264056.61">
        <lane index="0" width="3.66" />
    </edge>
    <edge id="887.0" from="node_882_start" to="junction_50" numLanes="2" speed="13.89" type="town" shape="579659.08,3264141.37 579627.48,3264126.99 579627.48,3264126.99 579595.78,3264112.85 579595.78,3264112.85 579564.04,3264098.78 579564.04,3264098.78 579532.30,3264084.75 579532.30,3264084.75 579500.58,3264070.66 579500.58,3264070.66 579468.84,3264056.61">
        <lane index="0" width="3.66" />
        <lane index="1" width="3.66" />
    </edge>
    <edge id="893.0" from="node_685_end" to="node_894_start" numLanes="4" speed="13.89" type="town" shape="571623.39,3260872.68 571602.96,3260865.20 571602.96,3260865.20 571571.14,3260852.96 571571.14,3260852.96 571544.44,3260842.85 571544.44,3260842.85 571500.63,3260826.27 571500.63,3260826.27 571479.92,3260818.29 571479.92,3260818.29 571453.10,3260808.20">
        <lane index="0" width="3.66" type="shoulder" disallow="all" />
        <lane index="1" width="3.66" />
        <lane index="2" width="3.66" />
        <lane index="3" width="3.66" type="shoulder" disallow="all" />
    </edge>
</edges>