<?xml version='1.0' encoding='utf-8'?>
<connections>
    <connection from="319.0" to="merge_zone_2" fromLane="0" toLane="0" />
    <connection from="merge_zone_2" to="12.0" fromLane="0" toLane="4" dir="r" state="m" />
    <connection from="2.0" to="merge_zone_2" fromLane="4" toLane="5" />
    <connection from="2.0" to="merge_zone_2" fromLane="3" toLane="4" />
    <connection from="2.0" to="merge_zone_2" fromLane="2" toLane="3" />
    <connection from="2.0" to="merge_zone_2" fromLane="1" toLane="2" />
    <connection from="merge_zone_2" to="12.0" fromLane="5" toLane="4" />
    <connection from="merge_zone_2" to="12.0" fromLane="4" toLane="3" />
    <connection from="merge_zone_2" to="12.0" fromLane="3" toLane="2" />
    <connection from="merge_zone_2" to="12.0" fromLane="2" toLane="1" />
    <connection from="306.0" to="259.0" fromLane="3" toLane="4" />
    <connection from="306.0" to="259.0" fromLane="4" toLane="5" />
    <connection from="306.0" to="259.0" fromLane="1" toLane="2" />
    <connection from="306.0" to="259.0" fromLane="2" toLane="3" />
    <connection from="9.0" to="13.0" fromLane="4" toLane="4" />
    <connection from="9.0" to="13.0" fromLane="3" toLane="3" />
    <connection from="9.0" to="13.0" fromLane="2" toLane="2" />
    <connection from="9.0" to="13.0" fromLane="1" toLane="1" />
    <connection from="3.0" to="18.0" fromLane="0" toLane="0" />
    <connection from="3.0" to="21.0" fromLane="4" toLane="4" />
    <connection from="3.0" to="21.0" fromLane="2" toLane="2" />
    <connection from="3.0" to="21.0" fromLane="1" toLane="1" />
    <connection from="3.0" to="21.0" fromLane="3" toLane="3" />
    <connection from="7.0" to="24.0" fromLane="0" toLane="0" />
    <connection from="7.0" to="9.0" fromLane="4" toLane="4" />
    <connection from="7.0" to="9.0" fromLane="2" toLane="2" />
    <connection from="7.0" to="9.0" fromLane="3" toLane="3" />
    <connection from="7.0" to="9.0" fromLane="1" toLane="1" />
    <connection from="257.0" to="305.0" fromLane="4" toLane="3" />
    <connection from="257.0" to="305.0" fromLane="3" toLane="2" />
    <connection from="257.0" to="305.0" fromLane="2" toLane="1" />
    <connection from="257.0" to="305.0" fromLane="5" toLane="4" />
    <connection from="303.0" to="274.0" fromLane="1" toLane="0" />
    <connection from="303.0" to="503.0" fromLane="3" toLane="2" />
    <connection from="303.0" to="503.0" fromLane="2" toLane="1" />
    <connection from="303.0" to="503.0" fromLane="1" toLane="0" />
    <connection from="303.0" to="503.0" fromLane="4" toLane="3" />
</connections>