<?xml version='1.0' encoding='utf-8'?>
<edges>
    <edge id="0.0" from="node_0_start" to="node_0_end" numLanes="5" speed="13.89" type="town" shape="782137.24,3297340.28 782128.36,3297341.67 782128.36,3297341.67 782103.35,3297345.85 782103.35,3297345.85 782075.76,3297350.34 782075.76,3297350.34 782054.89,3297353.66 782054.89,3297353.66 782036.04,3297356.60 782036.04,3297356.60 782017.96,3297359.52 782017.96,3297359.52 781993.39,3297363.09 781993.39,3297363.09 781976.45,3297365.60 781976.45,3297365.60 781956.67,3297368.56 781956.67,3297368.56 781938.76,3297371.07 781938.76,3297371.07 781914.97,3297374.39 781914.97,3297374.39 781897.85,3297376.79 781897.85,3297376.79 781879.25,3297379.21 781879.25,3297379.21 781862.06,3297381.46 781862.06,3297381.46 781844.15,3297383.74 781844.15,3297383.74 781825.59,3297386.08 781825.59,3297386.08 781800.08,3297389.14 781800.08,3297389.14 781774.16,3297392.14 781774.16,3297392.14 781759.04,3297393.89">
        <lane index="0" width="3.66" />
        <lane index="1" width="3.66" />
        <lane index="2" width="3.66" />
        <lane index="3" width="3.66" />
        <lane index="4" width="3.66" type="shoulder" disallow="all" />
    </edge>
    <edge id="12.0" from="j_merge_end_2" to="node_12_end" numLanes="5" speed="13.89" type="town" shape="784011.13,3297138.92 784003.07,3297139.84 784003.07,3297139.84 783990.51,3297141.26 783990.51,3297141.26 783974.36,3297143.17 783974.36,3297143.17 783960.39,3297144.79 783960.39,3297144.79 783948.74,3297146.10 783948.74,3297146.10 783935.66,3297147.58 783935.66,3297147.58 783923.48,3297149.00">
        <lane index="0" width="3.66" />
        <lane index="1" width="3.66" />
        <lane index="2" width="3.66" />
        <lane index="3" width="3.66" />
        <lane index="4" width="3.66" type="shoulder" disallow="all" />
    </edge>
    <edge id="13.0" from="junction_3" to="node_0_start" numLanes="5" speed="13.89" type="town" shape="782213.46,3297327.42 782204.48,3297328.89 782204.48,3297328.89 782191.04,3297331.11 782191.04,3297331.11 782179.38,3297333.07 782179.38,3297333.07 782165.11,3297335.49 782165.11,3297335.49 782144.78,3297339.10 782144.78,3297339.10 782137.24,3297340.28">
        <lane index="0" width="3.66" />
        <lane index="1" width="3.66" />
        <lane index="2" width="3.66" />
        <lane index="3" width="3.66" />
        <lane index="4" width="3.66" type="shoulder" disallow="all" />
    </edge>
    <edge id="16.0" from="node_16_start" to="node_16_end" numLanes="4" speed="13.89" type="town" shape="785320.07,3296989.29 785314.80,3296989.89 785314.80,3296989.89 785306.47,3296990.79 785306.47,3296990.79 785297.30,3296991.85 785297.30,3296991.85 785290.03,3296992.71 785290.03,3296992.71 785281.38,3296993.71 785281.38,3296993.71 785274.84,3296994.43 785274.84,3296994.43 785267.90,3296995.26 785267.90,3296995.26 785260.80,3296996.05 785260.80,3296996.05 785253.53,3296996.87 785253.53,3296996.87 785247.36,3296997.59 785247.36,3296997.59 785240.18,3296998.41 785240.18,3296998.41 785232.03,3296999.35 785232.03,3296999.35 785225.76,3297000.05">
        <lane index="0" width="3.66" />
        <lane index="1" width="3.66" />
        <lane index="2" width="3.66" />
        <lane index="3" width="3.66" type="shoulder" disallow="all" />
    </edge>
    <edge id="17.0" from="node_17_start" to="junction_3" numLanes="1" speed="13.89" type="town" shape="782659.56,3297297.95 782632.44,3297301.26 782632.44,3297301.26 782603.22,3297304.34 782603.22,3297304.34 782570.40,3297307.65 782570.40,3297307.65 782532.47,3297311.09 782532.47,3297311.09 782510.90,3297312.75 782510.90,3297312.75 782489.66,3297314.51 782489.66,3297314.51 782467.48,3297316.16 782467.48,3297316.16 782442.09,3297318.05 782442.09,3297318.05 782421.03,3297319.63 782421.03,3297319.63 782398.70,3297321.35 782398.70,3297321.35 782376.04,3297323.27 782376.04,3297323.27 782364.03,3297324.42">
        <lane index="0" width="3.66" />
    </edge>
    <edge id="18.0" from="junction_63" to="node_18_end" numLanes="1" speed="13.89" type="town" shape="781512.49,3297442.78 781499.21,3297444.78 781499.21,3297444.78 781488.62,3297446.28 781488.62,3297446.28 781476.40,3297447.96 781476.40,3297447.96 781463.02,3297449.79 781463.02,3297449.79 781449.85,3297451.62 781449.85,3297451.62 781434.74,3297453.70 781434.74,3297453.70 781416.03,3297456.36 781416.03,3297456.36 781397.59,3297459.04 781397.59,3297459.04 781376.20,3297462.23 781376.20,3297462.23 781356.99,3297465.05 781356.99,3297465.05 781343.45,3297467.13 781343.45,3297467.13 781329.42,3297469.09 781329.42,3297469.09 781315.85,3297471.06 781315.85,3297471.06 781303.27,3297472.86 781303.27,3297472.86 781299.57,3297473.32">
        <lane index="0" width="3.66" />
    </edge>
    <edge id="2.0" from="node_16_end" to="j_merge_start_2" numLanes="5" speed="13.89" type="town" shape="785225.76,3297000.05 785223.66,3297000.28 785223.66,3297000.28 785215.21,3297001.27 785215.21,3297001.27 785208.19,3297002.07 785208.19,3297002.07 785201.60,3297002.82 785201.60,3297002.82 785196.77,3297003.39 785196.77,3297003.39 785190.82,3297004.12 785190.82,3297004.12 785179.98,3297005.33 785179.98,3297005.33 785172.38,3297006.18 785172.38,3297006.18 785162.62,3297007.33 785162.62,3297007.33 785152.29,3297008.52 785152.29,3297008.52 785142.52,3297009.61 785142.52,3297009.61 785133.96,3297010.57 785133.96,3297010.57 785125.24,3297011.58 785125.24,3297011.58 785112.05,3297013.07 785112.05,3297013.07 785102.73,3297014.14 785102.73,3297014.14 785095.08,3297014.98 785095.08,3297014.98 785086.94,3297015.96 785086.94,3297015.96 785079.05,3297016.85 785079.05,3297016.85 785071.97,3297017.67 785071.97,3297017.67 785062.83,3297018.74 785062.83,3297018.74 785055.45,3297019.53 785055.45,3297019.53 785048.22,3297020.39 785048.22,3297020.39 785039.05,3297021.45 785039.05,3297021.45 785032.48,3297022.23 785032.48,3297022.23 785019.97,3297023.64 785019.97,3297023.64 785004.45,3297025.38 785004.45,3297025.38 784987.83,3297027.28 784987.83,3297027.28 784964.81,3297029.97 784964.81,3297029.97 784945.42,3297032.04 784945.42,3297032.04 784917.29,3297035.34 784917.29,3297035.34 784898.59,3297037.45 784898.59,3297037.45 784881.80,3297039.48 784881.80,3297039.48 784861.51,3297041.69 784861.51,3297041.69 784850.79,3297042.95 784850.79,3297042.95 784834.17,3297044.89 784834.17,3297044.89 784818.42,3297046.66 784818.42,3297046.66 784806.88,3297048.00 784806.88,3297048.00 784791.00,3297049.79 784791.00,3297049.79 784779.51,3297051.15 784779.51,3297051.15 784768.72,3297052.38 784768.72,3297052.38 784755.42,3297053.89 784755.42,3297053.89 784742.70,3297055.36 784742.70,3297055.36 784725.36,3297057.28 784725.36,3297057.28 784707.27,3297059.40 784707.27,3297059.40 784692.88,3297061.02 784692.88,3297061.02 784677.35,3297062.78 784677.35,3297062.78 784664.18,3297064.28 784664.18,3297064.28 784647.71,3297066.21 784647.71,3297066.21 784637.16,3297067.38 784637.16,3297067.38 784623.69,3297068.92 784623.69,3297068.92 784607.96,3297070.74 784607.96,3297070.74 784595.79,3297072.12 784595.79,3297072.12 784577.83,3297074.14 784577.83,3297074.14 784565.20,3297075.58 784565.20,3297075.58 784549.56,3297077.40 784549.56,3297077.40 784535.70,3297078.99 784535.70,3297078.99 784521.60,3297080.54 784521.60,3297080.54 784505.07,3297082.44 784505.07,3297082.44 784491.96,3297083.93 784491.96,3297083.93 784474.89,3297085.92 784474.89,3297085.92 784462.84,3297087.30 784462.84,3297087.30 784450.46,3297088.71 784450.46,3297088.71 784442.90,3297089.59 784442.90,3297089.59 784430.55,3297090.97 784430.55,3297090.97 784418.84,3297092.33 784418.84,3297092.33 784400.02,3297094.44 784400.02,3297094.44 784385.41,3297096.16 784385.41,3297096.16 784373.08,3297097.59 784373.08,3297097.59 784360.09,3297099.05 784360.09,3297099.05 784347.40,3297100.51 784347.40,3297100.51 784333.39,3297102.13 784333.39,3297102.13 784321.58,3297103.47 784321.58,3297103.47 784307.97,3297105.04 784307.97,3297105.04 784300.53,3297105.88 784300.53,3297105.88 784291.92,3297106.92 784291.92,3297106.92 784284.19,3297107.78 784284.19,3297107.78 784272.63,3297109.10 784272.63,3297109.10 784260.67,3297110.44 784260.67,3297110.44 784253.41,3297111.30 784253.41,3297111.30 784246.30,3297112.12 784246.30,3297112.12 784233.41,3297113.62 784233.41,3297113.62 784223.59,3297114.76 784223.59,3297114.76 784210.18,3297116.22">
        <lane index="0" width="3.66" type="shoulder" disallow="all" />
        <lane index="1" width="3.66" />
        <lane index="2" width="3.66" />
        <lane index="3" width="3.66" />
        <lane index="4" width="3.66" type="shoulder" disallow="all" />
    </edge>
    <edge id="21.0" from="junction_63" to="j_merge_start_1" numLanes="5" speed="13.89" type="town" shape="781508.31,3297422.59 781506.18,3297422.83 781506.18,3297422.83 781487.37,3297424.96 781487.37,3297424.96 781466.77,3297427.40 781466.77,3297427.40 781438.14,3297430.63 781438.14,3297430.63 781397.21,3297435.31 781397.21,3297435.31 781365.85,3297438.84 781365.85,3297438.84 781334.45,3297442.26 781334.45,3297442.26 781312.10,3297445.03 781312.10,3297445.03 781285.85,3297447.94 781285.85,3297447.94 781276.25,3297449.12 781276.25,3297449.12 781261.47,3297450.76 781261.47,3297450.76 781243.22,3297452.87 781243.22,3297452.87 781225.94,3297454.76 781225.94,3297454.76 781206.40,3297456.99 781206.40,3297456.99 781191.39,3297458.68 781191.39,3297458.68 781175.48,3297460.47 781175.48,3297460.47 781158.61,3297462.43 781158.61,3297462.43 781142.09,3297464.33 781142.09,3297464.33 781125.90,3297466.04 781125.90,3297466.04 781106.40,3297468.42 781106.40,3297468.42 781087.61,3297470.48 781087.61,3297470.48 781069.10,3297472.62 781069.10,3297472.62 781033.21,3297476.67 781033.21,3297476.67 781014.31,3297478.87 781014.31,3297478.87 780998.99,3297480.56 780998.99,3297480.56 780978.58,3297482.91 780978.58,3297482.91 780960.28,3297485.00 780960.28,3297485.00 780939.67,3297487.31 780939.67,3297487.31 780917.99,3297489.84 780917.99,3297489.84 780900.16,3297491.88 780900.16,3297491.88 780881.99,3297493.94 780881.99,3297493.94 780862.81,3297496.16 780862.81,3297496.16 780837.79,3297498.96 780837.79,3297498.96 780813.12,3297501.87 780813.12,3297501.87 780794.84,3297503.96 780794.84,3297503.96 780779.65,3297505.69 780779.65,3297505.69 780757.14,3297508.25 780757.14,3297508.25 780743.29,3297509.86 780743.29,3297509.86 780729.50,3297511.39 780729.50,3297511.39 780711.00,3297513.53 780711.00,3297513.53 780695.37,3297515.27 780695.37,3297515.27 780676.65,3297517.45 780676.65,3297517.45 780658.51,3297519.53 780658.51,3297519.53 780641.29,3297521.46 780641.29,3297521.46 780624.42,3297523.43 780624.42,3297523.43 780606.52,3297525.37 780606.52,3297525.37 780591.57,3297527.12 780591.57,3297527.12 780580.93,3297528.33 780580.93,3297528.33 780565.50,3297530.11 780565.50,3297530.11 780547.11,3297532.05 780547.11,3297532.05 780528.90,3297533.91 780528.90,3297533.91 780511.66,3297535.48 780511.66,3297535.48 780494.56,3297536.83 780494.56,3297536.83 780475.32,3297538.20 780475.32,3297538.20 780456.78,3297539.34 780456.78,3297539.34 780434.58,3297540.44 780434.58,3297540.44 780415.70,3297541.20 780415.70,3297541.20 780399.08,3297541.62 780399.08,3297541.62 780386.33,3297542.04 780386.33,3297542.04 780374.94,3297542.32 780374.94,3297542.32 780362.30,3297542.52 780362.30,3297542.52 780348.97,3297542.57 780348.97,3297542.57 780336.34,3297542.52 780336.34,3297542.52 780321.29,3297542.47 780321.29,3297542.47 780306.45,3297542.26 780306.45,3297542.26 780291.27,3297541.94 780291.27,3297541.94 780276.73,3297541.46 780276.73,3297541.46 780265.60,3297541.06 780265.60,3297541.06 780252.20,3297540.52 780252.20,3297540.52 780240.38,3297539.96 780240.38,3297539.96 780227.14,3297539.16 780227.14,3297539.16 780216.95,3297538.55 780216.95,3297538.55 780207.02,3297537.97 780207.02,3297537.97 780195.49,3297537.21 780195.49,3297537.21 780185.94,3297536.59 780185.94,3297536.59 780167.22,3297535.42 780167.22,3297535.42 780148.27,3297534.27 780148.27,3297534.27 780127.77,3297533.27 780127.77,3297533.27 780116.36,3297532.23 780116.36,3297532.23 780107.04,3297531.65 780107.04,3297531.65 780096.82,3297531.00 780096.82,3297531.00 780086.77,3297530.37 780086.77,3297530.37 780075.93,3297529.66 780075.93,3297529.66 780062.25,3297528.82 780062.25,3297528.82 780050.48,3297528.08 780050.48,3297528.08 780042.92,3297527.58 780042.92,3297527.58 780033.99,3297527.02 780033.99,3297527.02 780024.61,3297526.44">
        <lane index="0" width="3.66" type="shoulder" disallow="all" />
        <lane index="1" width="3.66" />
        <lane index="2" width="3.66" />
        <lane index="3" width="3.66" />
        <lane index="4" width="3.66" type="shoulder" disallow="all" />
    </edge>
    <edge id="24.0" from="junction_64" to="node_24_end" numLanes="1" speed="13.89" type="town" shape="783343.68,3297219.49 783332.15,3297220.81 783332.15,3297220.81 783316.43,3297222.65 783316.43,3297222.65 783300.06,3297224.54 783300.06,3297224.54 783287.49,3297226.04 783287.49,3297226.04 783275.19,3297227.50 783275.19,3297227.50 783263.67,3297228.89 783263.67,3297228.89 783253.23,3297230.14 783253.23,3297230.14 783242.19,3297231.41 783242.19,3297231.41 783227.12,3297233.08 783227.12,3297233.08 783216.24,3297234.32 783216.24,3297234.32 783204.52,3297235.66 783204.52,3297235.66 783192.31,3297237.12 783192.31,3297237.12 783185.11,3297237.90 783185.11,3297237.90 783173.40,3297239.07 783173.40,3297239.07 783157.98,3297240.65 783157.98,3297240.65 783089.74,3297248.98 783089.74,3297248.98 783032.70,3297255.25">
        <lane index="0" width="3.66" />
    </edge>
    <edge id="257.0" from="node_257_start" to="junction_80" numLanes="6" speed="13.89" type="town" shape="786415.85,3297056.46 786372.17,3297043.00 786372.17,3297043.00 786324.98,3297028.90">
        <lane index="0" width="3.66" type="shoulder" disallow="all" />
        <lane index="1" width="3.66" />
        <lane index="2" width="3.66" />
        <lane index="3" width="3.66" />
        <lane index="4" width="3.66" />
        <lane index="5" width="3.66" type="shoulder" disallow="all" />
    </edge>
    <edge id="258.0" from="node_258_start" to="node_257_start" numLanes="6" speed="13.89" type="town" shape="787752.01,3297459.67 786913.41,3297206.55 786913.41,3297206.55 786839.06,3297184.29 786839.06,3297184.29 786415.85,3297056.46">
        <lane index="0" width="3.66" type="shoulder" disallow="all" />
        <lane index="1" width="3.66" />
        <lane index="2" width="3.66" />
        <lane index="3" width="3.66" />
        <lane index="4" width="3.66" />
        <lane index="5" width="3.66" type="shoulder" disallow="all" />
    </edge>
    <edge id="259.0" from="junction_20" to="node_258_start" numLanes="6" speed="13.89" type="town" shape="787838.98,3297486.18 787752.01,3297459.67">
        <lane index="0" width="3.66" type="shoulder" disallow="all" />
        <lane index="1" width="3.66" />
        <lane index="2" width="3.66" />
        <lane index="3" width="3.66" />
        <lane index="4" width="3.66" />
        <lane index="5" width="3.66" type="shoulder" disallow="all" />
    </edge>
    <edge id="274.0" from="junction_84" to="node_274_end" numLanes="1" speed="13.89" type="town" shape="785378.66,3296997.56 785294.92,3297010.78 785294.92,3297010.78 785062.56,3297046.14">
        <lane index="0" width="3.66" />
    </edge>
    <edge id="3.0" from="node_0_end" to="junction_63" numLanes="5" speed="13.89" type="town" shape="781759.04,3297393.89 781753.61,3297394.51 781753.61,3297394.51 781727.79,3297397.55 781727.79,3297397.55 781699.04,3297400.82 781699.04,3297400.82 781671.51,3297404.02 781671.51,3297404.02 781665.50,3297404.71">
        <lane index="0" width="3.66" />
        <lane index="1" width="3.66" />
        <lane index="2" width="3.66" />
        <lane index="3" width="3.66" />
        <lane index="4" width="3.66" type="shoulder" disallow="all" />
    </edge>
    <edge id="303.0" from="node_303_start" to="junction_84" numLanes="5" speed="13.89" type="town" shape="785529.97,3296965.41 785487.67,3296970.36">
        <lane index="0" width="3.66" type="shoulder" disallow="all" />
        <lane index="1" width="3.66" />
        <lane index="2" width="3.66" />
        <lane index="3" width="3.66" />
        <lane index="4" width="3.66" type="shoulder" disallow="all" />
    </edge>
    <edge id="305.0" from="junction_80" to="node_303_start" numLanes="5" speed="13.89" type="town" shape="786232.32,3297001.29 786196.94,3296990.83 786196.94,3296990.83 786182.07,3296986.79 786182.07,3296986.79 786151.93,3296979.17 786151.93,3296979.17 786108.19,3296969.51 786108.19,3296969.51 786086.23,3296965.02 786086.23,3296965.02 786061.65,3296960.67 786061.65,3296960.67 786029.88,3296955.60 786029.88,3296955.60 785983.30,3296949.34 785983.30,3296949.34 785952.55,3296946.15 785952.55,3296946.15 785922.92,3296943.74 785922.92,3296943.74 785889.96,3296941.83 785889.96,3296941.83 785859.84,3296940.76 785859.84,3296940.76 785832.53,3296940.48 785832.53,3296940.48 785802.42,3296940.68 785802.42,3296940.68 785768.27,3296941.66 785768.27,3296941.66 785736.38,3296943.41 785736.38,3296943.41 785707.74,3296945.59 785707.74,3296945.59 785674.79,3296948.77 785674.79,3296948.77 785529.97,3296965.41">
        <lane index="0" width="3.66" type="shoulder" disallow="all" />
        <lane index="1" width="3.66" />
        <lane index="2" width="3.66" />
        <lane index="3" width="3.66" />
        <lane index="4" width="3.66" type="shoulder" disallow="all" />
    </edge>
    <edge id="306.0" from="node_306_start" to="junction_20" numLanes="5" speed="13.89" type="town" shape="790048.08,3298168.44 789547.78,3298017.62 789547.78,3298017.62 789487.19,3297999.59 789487.19,3297999.59 789371.85,3297964.62 789371.85,3297964.62 789012.58,3297856.40 789012.58,3297856.40 788951.95,3297837.29 788951.95,3297837.29 788690.13,3297750.39 788690.13,3297750.39 788559.59,3297706.71 788559.59,3297706.71 788494.01,3297685.13 788494.01,3297685.13 788459.25,3297673.90 788459.25,3297673.90 788428.40,3297664.23 788428.40,3297664.23 788369.92,3297646.33 788369.92,3297646.33 787927.11,3297512.67">
        <lane index="0" width="3.66" type="shoulder" disallow="all" />
        <lane index="1" width="3.66" />
        <lane index="2" width="3.66" />
        <lane index="3" width="3.66" />
        <lane index="4" width="3.66" type="shoulder" disallow="all" />
    </edge>
    <edge id="319.0" from="node_319_start" to="j_merge_start_2" numLanes="1" speed="13.89" type="town" shape="784387.75,3297121.08 784376.57,3297122.01 784376.57,3297122.01 784359.37,3297123.51 784359.37,3297123.51 784347.21,3297124.55 784347.21,3297124.55 784337.65,3297125.41 784337.65,3297125.41 784324.13,3297126.59 784324.13,3297126.59 784310.44,3297127.77 784310.44,3297127.77 784273.18,3297131.04 784273.18,3297131.04 784259.08,3297132.21 784259.08,3297132.21 784246.63,3297133.28 784246.63,3297133.28 784230.59,3297134.68 784230.59,3297134.68 784213.32,3297136.14">
        <lane index="0" width="3.66" />
    </edge>
    <edge id="4.0" from="node_12_end" to="node_4_end" numLanes="5" speed="13.89" type="town" shape="783923.48,3297149.00 783917.65,3297149.68 783917.65,3297149.68 783902.42,3297151.40 783902.42,3297151.40 783888.78,3297152.92 783888.78,3297152.92 783874.28,3297154.51 783874.28,3297154.51 783861.15,3297155.93 783861.15,3297155.93 783846.87,3297157.44 783846.87,3297157.44 783831.89,3297158.98 783831.89,3297158.98 783823.32,3297159.87 783823.32,3297159.87 783808.10,3297161.39 783808.10,3297161.39 783800.05,3297162.20 783800.05,3297162.20 783790.72,3297163.11 783790.72,3297163.11 783776.64,3297164.47 783776.64,3297164.47 783766.39,3297165.44 783766.39,3297165.44 783756.55,3297166.40 783756.55,3297166.40 783748.10,3297167.07 783748.10,3297167.07 783738.41,3297167.94 783738.41,3297167.94 783721.50,3297169.43 783721.50,3297169.43 783707.72,3297170.61 783707.72,3297170.61 783695.32,3297171.63 783695.32,3297171.63 783683.59,3297172.58 783683.59,3297172.58 783674.71,3297173.30 783674.71,3297173.30 783666.05,3297173.99 783666.05,3297173.99 783655.14,3297174.86 783655.14,3297174.86 783645.11,3297175.65 783645.11,3297175.65 783633.43,3297176.56 783633.43,3297176.56 783621.98,3297177.48 783621.98,3297177.48 783602.76,3297178.99 783602.76,3297178.99 783588.33,3297180.16 783588.33,3297180.16 783587.49,3297180.23">
        <lane index="0" width="3.66" />
        <lane index="1" width="3.66" />
        <lane index="2" width="3.66" />
        <lane index="3" width="3.66" />
        <lane index="4" width="3.66" type="shoulder" disallow="all" />
    </edge>
    <edge id="503.0" from="junction_84" to="node_16_start" numLanes="4" speed="13.89" type="town" shape="785377.00,3296983.03 785358.13,3296985.11 785358.13,3296985.11 785339.25,3296987.16 785339.25,3296987.16 785320.07,3296989.29">
        <lane index="0" width="3.66" />
        <lane index="1" width="3.66" />
        <lane index="2" width="3.66" />
        <lane index="3" width="3.66" type="shoulder" disallow="all" />
    </edge>
    <edge id="7.0" from="node_4_end" to="junction_64" numLanes="5" speed="13.89" type="town" shape="783587.49,3297180.23 783576.06,3297181.12 783576.06,3297181.12 783567.79,3297181.82 783567.79,3297181.82 783545.01,3297183.60 783545.01,3297183.60 783526.02,3297185.07 783526.02,3297185.07 783511.97,3297186.19 783511.97,3297186.19 783499.27,3297187.18">
        <lane index="0" width="3.66" />
        <lane index="1" width="3.66" />
        <lane index="2" width="3.66" />
        <lane index="3" width="3.66" />
        <lane index="4" width="3.66" type="shoulder" disallow="all" />
    </edge>
    <edge id="9.0" from="junction_64" to="junction_3" numLanes="5" speed="13.89" type="town" shape="783341.83,3297199.60 783324.90,3297200.98 783324.90,3297200.98 783300.00,3297202.96 783300.00,3297202.96 783282.22,3297204.35 783282.22,3297204.35 783266.84,3297205.58 783266.84,3297205.58 783243.69,3297207.55 783243.69,3297207.55 783231.68,3297208.38 783231.68,3297208.38 783207.80,3297210.23 783207.80,3297210.23 783192.18,3297211.44 783192.18,3297211.44 783162.77,3297213.81 783162.77,3297213.81 783141.81,3297215.55 783141.81,3297215.55 783120.97,3297217.31 783120.97,3297217.31 783108.36,3297218.45 783108.36,3297218.45 783092.42,3297219.91 783092.42,3297219.91 783078.30,3297221.21 783078.30,3297221.21 783062.69,3297222.72 783062.69,3297222.72 783056.03,3297223.33 783056.03,3297223.33 783043.66,3297224.57 783043.66,3297224.57 783027.12,3297226.26 783027.12,3297226.26 783012.96,3297227.79 783012.96,3297227.79 782994.28,3297229.63 782994.28,3297229.63 782975.13,3297231.83 782975.13,3297231.83 782954.28,3297234.18 782954.28,3297234.18 782939.55,3297235.84 782939.55,3297235.84 782922.47,3297237.86 782922.47,3297237.86 782906.76,3297239.68 782906.76,3297239.68 782886.46,3297241.95 782886.46,3297241.95 782862.60,3297244.65 782862.60,3297244.65 782845.13,3297246.70 782845.13,3297246.70 782824.68,3297249.06 782824.68,3297249.06 782797.74,3297252.32 782797.74,3297252.32 782774.28,3297255.36 782774.28,3297255.36 782751.73,3297258.17 782751.73,3297258.17 782724.07,3297261.47 782724.07,3297261.47 782704.36,3297263.38 782704.36,3297263.38 782675.64,3297266.20 782675.64,3297266.20 782652.65,3297268.73 782652.65,3297268.73 782627.33,3297271.59 782627.33,3297271.59 782603.62,3297274.31 782603.62,3297274.31 782581.19,3297276.87 782581.19,3297276.87 782562.46,3297279.02 782562.46,3297279.02 782542.32,3297281.35 782542.32,3297281.35 782522.60,3297283.61 782522.60,3297283.61 782504.23,3297285.81 782504.23,3297285.81 782477.98,3297288.99 782477.98,3297288.99 782459.69,3297291.34 782459.69,3297291.34 782436.27,3297294.33 782436.27,3297294.33 782419.39,3297296.59 782419.39,3297296.59 782400.48,3297299.05 782400.48,3297299.05 782380.51,3297301.79 782380.51,3297301.79 782361.37,3297304.46">
        <lane index="0" width="3.66" type="shoulder" disallow="all" />
        <lane index="1" width="3.66" />
        <lane index="2" width="3.66" />
        <lane index="3" width="3.66" />
        <lane index="4" width="3.66" type="shoulder" disallow="all" />
    </edge>
    <edge id="25.0" from="node_25_start" to="j_merge_start_1" numLanes="1" speed="13.89" type="town" shape="780296.60,3297569.11 780289.86,3297568.97 780289.86,3297568.97 780281.26,3297568.69 780281.26,3297568.69 780269.46,3297568.30 780269.46,3297568.30 780261.26,3297567.88 780261.26,3297567.88 780247.54,3297567.28 780247.54,3297567.28 780235.20,3297566.61 780235.20,3297566.61 780222.43,3297565.78 780222.43,3297565.78 780208.22,3297564.87 780208.22,3297564.87 780195.32,3297563.86 780195.32,3297563.86 780182.09,3297562.71 780182.09,3297562.71 780173.64,3297561.98 780173.64,3297561.98 780162.64,3297561.00 780162.64,3297561.00 780152.15,3297559.99 780152.15,3297559.99 780141.11,3297558.85 780141.11,3297558.85 780130.31,3297557.81 780130.31,3297557.81 780119.56,3297556.76 780119.56,3297556.76 780111.53,3297556.01 780111.53,3297556.01 780101.04,3297554.92 780101.04,3297554.92 780089.99,3297553.89 780089.99,3297553.89 780078.32,3297552.68 780078.32,3297552.68 780067.80,3297551.60 780067.80,3297551.60 780058.43,3297550.70 780058.43,3297550.70 780046.03,3297549.47 780046.03,3297549.47 780032.15,3297548.15 780032.15,3297548.15 780024.61,3297547.31">
        <lane index="0" width="3.66" />
    </edge>
    <edge id="merge_zone_2" from="j_merge_start_2" to="j_merge_end_2" numLanes="6" speed="13.89" name="Merge zone 2" type="highway_merge" shape="784156.94,3297122.29 784156.94,3297122.29 784145.07,3297123.69 784145.07,3297123.69 784137.26,3297124.53 784137.26,3297124.53 784129.61,3297125.43 784129.61,3297125.43 784116.44,3297126.90 784116.44,3297126.90 784103.06,3297128.43 784103.06,3297128.43 784089.55,3297129.96 784089.55,3297129.96 784076.17,3297131.46 784076.17,3297131.46 784061.87,3297133.08 784061.87,3297133.08 784048.06,3297134.68">
        <lane index="0" width="3.66" />
        <lane index="1" width="3.66" type="shoulder" disallow="all" />
        <lane index="2" width="3.66" />
        <lane index="3" width="3.66" />
        <lane index="4" width="3.66" />
        <lane index="5" width="3.66" type="shoulder" disallow="all" />
    </edge>
</edges>