<?xml version="1.0" encoding="UTF-8"?>

<!-- generated on 2025-10-19 17:33:43 by Eclipse SUMO netconvert Version 1.23.1
<netconvertConfiguration xmlns:xsi="http://www.w3.org/2001/XMLSchema-instance" xsi:noNamespaceSchemaLocation="http://sumo.dlr.de/xsd/netconvertConfiguration.xsd">

    <input>
        <node-files value="/home/sdai/harry/TeraSim/jupiter/wb/jupiter_wb_tiles/tile_0166/tile_0166.nod.xml"/>
        <edge-files value="/home/sdai/harry/TeraSim/jupiter/wb/jupiter_wb_tiles/tile_0166/tile_0166.edg.xml"/>
        <connection-files value="/home/sdai/harry/TeraSim/jupiter/wb/jupiter_wb_tiles/tile_0166/tile_0166.con.xml"/>
    </input>

    <output>
        <output-file value="/home/sdai/harry/TeraSim/jupiter/wb/jupiter_wb_tiles/tile_0166/tile_0166.net.xml"/>
        <output.street-names value="true"/>
        <output.original-names value="true"/>
    </output>

    <processing>
        <geometry.remove value="false"/>
        <geometry.min-dist value="0.5"/>
        <edges.join value="false"/>
    </processing>

    <junctions>
        <no-internal-links value="false"/>
        <no-turnarounds value="true"/>
        <junctions.join value="true"/>
        <junctions.join-dist value="10"/>
        <junctions.corner-detail value="5"/>
        <junctions.internal-link-detail value="5"/>
        <junctions.limit-turn-speed value="5.5"/>
        <rectangular-lane-cut value="true"/>
        <check-lane-foes.all value="true"/>
    </junctions>

</netconvertConfiguration>
-->

<net version="1.20" junctionCornerDetail="5" junctionLinkDetail="5" rectangularLaneCut="true" limitTurnSpeed="5.50" checkLaneFoesAll="1" xmlns:xsi="http://www.w3.org/2001/XMLSchema-instance" xsi:noNamespaceSchemaLocation="http://sumo.dlr.de/xsd/net_file.xsd">

    <location netOffset="-780024.61,-3296940.48" convBoundary="0.00,0.00,10023.47,1227.96" origBoundary="0.00,0.00,790184.66,3298209.69" projParameter="!"/>

    <edge id=":j_merge_end_2_0" function="internal">
        <lane id=":j_merge_end_2_0_0" index="0" disallow="all" speed="13.89" length="38.29" width="3.66" shape="4025.77,214.20 4013.88,212.69 4006.25,207.24 3998.62,201.78 3986.73,200.26"/>
        <lane id=":j_merge_end_2_0_1" index="1" speed="13.89" length="38.29" width="3.66" shape="4024.92,206.92 3987.97,211.17"/>
        <lane id=":j_merge_end_2_0_2" index="2" speed="13.89" length="38.29" width="3.66" shape="4024.50,203.29 3987.56,207.53"/>
        <lane id=":j_merge_end_2_0_3" index="3" speed="13.89" length="38.29" width="3.66" shape="4024.08,199.65 3987.14,203.89"/>
        <lane id=":j_merge_end_2_0_4" index="4" disallow="all" speed="13.89" length="38.29" width="3.66" shape="4023.66,196.02 3986.73,200.26"/>
    </edge>
    <edge id=":j_merge_start_2_0" function="internal">
        <lane id=":j_merge_start_2_0_0" index="0" speed="13.89" length="53.47" width="3.66" shape="4187.99,197.56 4134.69,201.80"/>
    </edge>
    <edge id=":j_merge_start_2_1" function="internal">
        <lane id=":j_merge_start_2_1_0" index="0" speed="13.89" length="53.52" width="3.66" shape="4186.96,188.47 4133.83,194.53"/>
        <lane id=":j_merge_start_2_1_1" index="1" speed="13.89" length="53.52" width="3.66" shape="4186.56,184.84 4133.40,190.90"/>
        <lane id=":j_merge_start_2_1_2" index="2" speed="13.89" length="53.52" width="3.66" shape="4186.16,181.20 4132.97,187.26"/>
        <lane id=":j_merge_start_2_1_3" index="3" disallow="all" speed="13.89" length="53.52" width="3.66" shape="4185.77,177.56 4132.54,183.63"/>
    </edge>
    <edge id=":junction_20_0" function="internal">
        <lane id=":junction_20_0_0" index="0" speed="13.89" length="92.05" width="3.66" shape="7898.80,584.45 7810.63,557.95"/>
        <lane id=":junction_20_0_1" index="1" speed="13.89" length="92.05" width="3.66" shape="7899.86,580.95 7811.70,554.45"/>
        <lane id=":junction_20_0_2" index="2" speed="13.89" length="92.05" width="3.66" shape="7900.91,577.45 7812.77,550.95"/>
        <lane id=":junction_20_0_3" index="3" disallow="all" speed="13.89" length="92.05" width="3.66" shape="7901.97,573.94 7813.84,547.45"/>
    </edge>
    <edge id=":junction_3_0" function="internal">
        <lane id=":junction_3_0_0" index="0" speed="13.89" length="149.49" width="3.66" shape="2339.87,385.73 2191.51,403.19"/>
        <lane id=":junction_3_0_1" index="1" speed="13.89" length="149.49" width="3.66" shape="2339.87,385.73 2190.92,399.58"/>
    </edge>
    <edge id=":junction_3_2" function="internal">
        <lane id=":junction_3_2_0" index="0" speed="13.89" length="149.51" width="3.66" shape="2338.53,376.67 2190.92,399.58"/>
        <lane id=":junction_3_2_1" index="1" speed="13.89" length="149.51" width="3.66" shape="2338.02,373.04 2190.33,395.97"/>
        <lane id=":junction_3_2_2" index="2" speed="13.89" length="149.51" width="3.66" shape="2337.52,369.42 2189.74,392.36"/>
        <lane id=":junction_3_2_3" index="3" disallow="all" speed="13.89" length="149.51" width="3.66" shape="2337.01,365.79 2189.15,388.75"/>
    </edge>
    <edge id=":junction_63_0" function="internal">
        <lane id=":junction_63_0_0" index="0" speed="13.89" length="156.39" width="3.66" shape="1642.77,480.59 1488.15,504.11"/>
    </edge>
    <edge id=":junction_63_1" function="internal">
        <lane id=":junction_63_1_0" index="0" speed="13.89" length="156.96" width="3.66" shape="1642.35,476.96 1486.39,494.70"/>
        <lane id=":junction_63_1_1" index="1" speed="13.89" length="156.96" width="3.66" shape="1641.93,473.32 1485.98,491.06"/>
        <lane id=":junction_63_1_2" index="2" speed="13.89" length="156.96" width="3.66" shape="1641.52,469.68 1485.57,487.42"/>
        <lane id=":junction_63_1_3" index="3" disallow="all" speed="13.89" length="156.96" width="3.66" shape="1641.10,466.05 1485.16,483.79"/>
    </edge>
    <edge id=":junction_64_0" function="internal">
        <lane id=":junction_64_0_0" index="0" speed="13.89" length="157.66" width="3.66" shape="3475.94,263.12 3319.28,280.83"/>
    </edge>
    <edge id=":junction_64_1" function="internal">
        <lane id=":junction_64_1_0" index="0" speed="13.89" length="158.21" width="3.66" shape="3475.66,259.47 3317.96,271.91"/>
        <lane id=":junction_64_1_1" index="1" speed="13.89" length="158.21" width="3.66" shape="3475.37,255.82 3317.66,268.26"/>
        <lane id=":junction_64_1_2" index="2" speed="13.89" length="158.21" width="3.66" shape="3475.09,252.17 3317.36,264.62"/>
        <lane id=":junction_64_1_3" index="3" disallow="all" speed="13.89" length="158.21" width="3.66" shape="3474.80,248.52 3317.06,260.97"/>
    </edge>
    <edge id=":junction_80_0" function="internal">
        <lane id=":junction_80_0_0" index="0" speed="13.89" length="96.66" width="3.66" shape="6296.70,100.69 6204.08,73.09"/>
        <lane id=":junction_80_0_1" index="1" speed="13.89" length="96.66" width="3.66" shape="6297.75,97.19 6205.12,69.58"/>
        <lane id=":junction_80_0_2" index="2" speed="13.89" length="96.66" width="3.66" shape="6298.80,93.68 6206.15,66.07"/>
        <lane id=":junction_80_0_3" index="3" disallow="all" speed="13.89" length="96.66" width="3.66" shape="6299.85,90.17 6207.19,62.56"/>
    </edge>
    <edge id=":junction_84_0" function="internal">
        <lane id=":junction_84_0_0" index="0" speed="13.89" length="111.41" width="3.66" shape="5464.55,42.60 5354.34,58.89"/>
    </edge>
    <edge id=":junction_84_1" function="internal">
        <lane id=":junction_84_1_0" index="0" speed="13.89" length="111.90" width="3.66" shape="5464.55,42.60 5353.34,55.33"/>
        <lane id=":junction_84_1_1" index="1" speed="13.89" length="111.90" width="3.66" shape="5464.12,38.97 5352.94,51.69"/>
        <lane id=":junction_84_1_2" index="2" speed="13.89" length="111.90" width="3.66" shape="5463.70,35.33 5352.54,48.06"/>
        <lane id=":junction_84_1_3" index="3" disallow="all" speed="13.89" length="111.90" width="3.66" shape="5463.27,31.70 5352.14,44.42"/>
    </edge>
    <edge id=":node_0_end_0" function="internal">
        <lane id=":node_0_end_0_0" index="0" speed="13.89" length="0.30" width="3.66" shape="1736.46,469.75 1736.16,469.79"/>
        <lane id=":node_0_end_0_1" index="1" speed="13.89" length="0.30" width="3.66" shape="1736.04,466.12 1735.74,466.15"/>
        <lane id=":node_0_end_0_2" index="2" speed="13.89" length="0.30" width="3.66" shape="1735.62,462.48 1735.33,462.52"/>
        <lane id=":node_0_end_0_3" index="3" speed="13.89" length="0.30" width="3.66" shape="1735.20,458.85 1734.91,458.88"/>
    </edge>
    <edge id=":node_0_start_0" function="internal">
        <lane id=":node_0_start_0_0" index="0" speed="13.89" length="0.10" width="3.66" shape="2115.18,416.07 2115.18,416.07"/>
        <lane id=":node_0_start_0_1" index="1" speed="13.89" length="0.10" width="3.66" shape="2114.61,412.46 2114.61,412.46"/>
        <lane id=":node_0_start_0_2" index="2" speed="13.89" length="0.10" width="3.66" shape="2114.04,408.84 2114.05,408.84"/>
        <lane id=":node_0_start_0_3" index="3" speed="13.89" length="0.10" width="3.66" shape="2113.48,405.22 2113.48,405.22"/>
    </edge>
    <edge id=":node_12_end_0" function="internal">
        <lane id=":node_12_end_0_0" index="0" speed="13.89" length="0.10" width="3.66" shape="3900.78,224.88 3900.78,224.88"/>
        <lane id=":node_12_end_0_1" index="1" speed="13.89" length="0.10" width="3.66" shape="3900.35,221.24 3900.35,221.24"/>
        <lane id=":node_12_end_0_2" index="2" speed="13.89" length="0.10" width="3.66" shape="3899.93,217.61 3899.93,217.61"/>
        <lane id=":node_12_end_0_3" index="3" speed="13.89" length="0.10" width="3.66" shape="3899.51,213.97 3899.51,213.97"/>
    </edge>
    <edge id=":node_16_end_0" function="internal">
        <lane id=":node_16_end_0_0" index="0" speed="13.89" length="3.00" width="3.66" shape="5204.05,72.14 5201.06,72.47"/>
        <lane id=":node_16_end_0_1" index="1" speed="13.89" length="3.00" width="3.66" shape="5203.65,68.50 5200.66,68.83"/>
        <lane id=":node_16_end_0_2" index="2" speed="13.89" length="3.00" width="3.66" shape="5203.24,64.86 5200.27,65.19"/>
    </edge>
    <edge id=":node_16_start_0" function="internal">
        <lane id=":node_16_start_0_0" index="0" speed="13.89" length="0.30" width="3.66" shape="5297.04,61.52 5296.75,61.56"/>
        <lane id=":node_16_start_0_1" index="1" speed="13.89" length="0.30" width="3.66" shape="5296.63,57.89 5296.33,57.92"/>
        <lane id=":node_16_start_0_2" index="2" speed="13.89" length="0.30" width="3.66" shape="5296.23,54.25 5295.92,54.28"/>
    </edge>
    <edge id=":node_257_start_0" function="internal">
        <lane id=":node_257_start_0_0" index="0" speed="13.89" length="0.30" width="3.66" shape="6386.59,131.78 6386.28,131.68"/>
        <lane id=":node_257_start_0_1" index="1" speed="13.89" length="0.30" width="3.66" shape="6387.65,128.28 6387.35,128.19"/>
        <lane id=":node_257_start_0_2" index="2" speed="13.89" length="0.30" width="3.66" shape="6388.71,124.77 6388.43,124.69"/>
        <lane id=":node_257_start_0_3" index="3" speed="13.89" length="0.30" width="3.66" shape="6389.77,121.27 6389.51,121.19"/>
    </edge>
    <edge id=":node_258_start_0" function="internal">
        <lane id=":node_258_start_0_0" index="0" speed="13.89" length="0.30" width="3.66" shape="7722.76,534.99 7722.48,534.91"/>
        <lane id=":node_258_start_0_1" index="1" speed="13.89" length="0.30" width="3.66" shape="7723.82,531.49 7723.54,531.41"/>
        <lane id=":node_258_start_0_2" index="2" speed="13.89" length="0.30" width="3.66" shape="7724.89,527.99 7724.60,527.90"/>
        <lane id=":node_258_start_0_3" index="3" speed="13.89" length="0.30" width="3.66" shape="7725.96,524.49 7725.66,524.40"/>
    </edge>
    <edge id=":node_303_start_0" function="internal">
        <lane id=":node_303_start_0_0" index="0" speed="13.89" length="0.30" width="3.66" shape="5506.98,37.64 5506.69,37.67"/>
        <lane id=":node_303_start_0_1" index="1" speed="13.89" length="0.30" width="3.66" shape="5506.56,34.00 5506.27,34.04"/>
        <lane id=":node_303_start_0_2" index="2" speed="13.89" length="0.30" width="3.66" shape="5506.15,30.37 5505.84,30.40"/>
    </edge>
    <edge id=":node_4_end_0" function="internal">
        <lane id=":node_4_end_0_0" index="0" speed="13.89" length="0.30" width="3.66" shape="3564.37,256.15 3564.04,256.18"/>
        <lane id=":node_4_end_0_1" index="1" speed="13.89" length="0.30" width="3.66" shape="3564.06,252.51 3563.76,252.53"/>
        <lane id=":node_4_end_0_2" index="2" speed="13.89" length="0.30" width="3.66" shape="3563.76,248.86 3563.47,248.88"/>
        <lane id=":node_4_end_0_3" index="3" speed="13.89" length="0.30" width="3.66" shape="3563.46,245.21 3563.19,245.23"/>
    </edge>

    <edge id="0.0" from="node_0_start" to="node_0_end" priority="-1" type="town" shape="2112.63,399.80 2103.75,401.19 2078.74,405.37 2051.15,409.86 2030.28,413.18 2011.43,416.12 1993.35,419.04 1968.78,422.61 1951.84,425.12 1932.06,428.08 1914.15,430.59 1890.36,433.91 1873.24,436.31 1854.64,438.73 1837.45,440.98 1819.54,443.26 1800.98,445.60 1775.47,448.66 1749.55,451.66 1734.43,453.41">
        <lane id="0.0_0" index="0" speed="13.89" length="382.26" width="3.66" shape="2115.18,416.07 2106.38,417.45 2081.42,421.62 2053.77,426.12 2032.84,429.45 2014.01,432.39 1995.85,435.32 1971.17,438.91 1954.27,441.41 1934.42,444.38 1916.43,446.90 1892.64,450.22 1875.45,452.63 1856.77,455.06 1839.56,457.31 1821.61,459.60 1802.99,461.95 1777.40,465.02 1751.44,468.02 1736.46,469.75"/>
        <lane id="0.0_1" index="1" speed="13.89" length="382.26" width="3.66" shape="2114.61,412.46 2105.80,413.84 2080.82,418.01 2053.19,422.51 2032.27,425.83 2013.44,428.77 1995.29,431.70 1970.64,435.28 1953.73,437.79 1933.90,440.76 1915.92,443.28 1892.13,446.60 1874.96,449.00 1856.30,451.43 1839.09,453.68 1821.15,455.97 1802.54,458.31 1776.97,461.38 1751.02,464.39 1736.04,466.12"/>
        <lane id="0.0_2" index="2" speed="13.89" length="382.26" width="3.66" shape="2114.05,408.84 2105.21,410.22 2080.23,414.40 2052.61,418.89 2031.70,422.22 2012.86,425.16 1994.74,428.08 1970.11,431.66 1953.19,434.17 1933.37,437.14 1915.42,439.65 1891.63,442.97 1874.47,445.38 1855.82,447.80 1838.62,450.05 1820.69,452.34 1802.10,454.68 1776.54,457.75 1750.60,460.75 1735.62,462.48"/>
        <lane id="0.0_3" index="3" speed="13.89" length="382.26" width="3.66" shape="2113.48,405.22 2104.63,406.61 2079.63,410.79 2052.02,415.28 2031.13,418.60 2012.29,421.54 1994.18,424.47 1969.58,428.04 1952.65,430.55 1932.85,433.51 1914.91,436.03 1891.12,439.35 1873.98,441.75 1855.35,444.17 1838.15,446.42 1820.23,448.71 1801.65,451.05 1776.11,454.11 1750.18,457.11 1735.20,458.85"/>
        <lane id="0.0_4" index="4" disallow="all" speed="13.89" length="382.26" width="3.66" shape="2112.91,401.61 2104.04,403.00 2079.04,407.18 2051.44,411.67 2030.56,414.99 2011.72,417.93 1993.63,420.85 1969.05,424.42 1952.11,426.93 1932.32,429.89 1914.40,432.40 1890.61,435.72 1873.49,438.12 1854.88,440.54 1837.68,442.79 1819.77,445.08 1801.20,447.42 1775.68,450.48 1749.76,453.48 1734.78,455.21" type="shoulder"/>
    </edge>
    <edge id="12.0" from="j_merge_end_2" to="node_12_end" priority="-1" type="town" shape="3986.52,198.44 3978.46,199.36 3965.90,200.78 3949.75,202.69 3935.78,204.31 3924.13,205.62 3911.05,207.10 3898.87,208.52">
        <lane id="12.0_0" index="0" speed="13.89" length="88.21" width="3.66" shape="3988.39,214.80 3980.32,215.72 3967.80,217.14 3951.67,219.05 3937.65,220.67 3925.98,221.99 3912.93,223.46 3900.78,224.88"/>
        <lane id="12.0_1" index="1" speed="13.89" length="88.21" width="3.66" shape="3987.97,211.17 3979.90,212.09 3967.38,213.50 3951.24,215.41 3937.24,217.04 3925.57,218.35 3912.51,219.83 3900.35,221.24"/>
        <lane id="12.0_2" index="2" speed="13.89" length="88.21" width="3.66" shape="3987.56,207.53 3979.49,208.45 3966.95,209.87 3950.82,211.78 3936.82,213.40 3925.16,214.71 3912.09,216.19 3899.93,217.61"/>
        <lane id="12.0_3" index="3" speed="13.89" length="88.21" width="3.66" shape="3987.14,203.89 3979.08,204.81 3966.53,206.23 3950.39,208.14 3936.40,209.76 3924.75,211.08 3911.68,212.55 3899.51,213.97"/>
        <lane id="12.0_4" index="4" disallow="all" speed="13.89" length="88.21" width="3.66" shape="3986.73,200.26 3978.67,201.18 3966.11,202.60 3949.96,204.51 3935.99,206.13 3924.34,207.44 3911.26,208.92 3899.08,210.34" type="shoulder"/>
    </edge>
    <edge id="13.0" from="junction_3" to="node_0_start" priority="-1" type="town" shape="2188.85,386.94 2179.87,388.41 2166.43,390.63 2154.77,392.59 2140.50,395.01 2120.17,398.62 2112.63,399.80">
        <lane id="13.0_0" index="0" speed="13.89" length="77.36" width="3.66" shape="2191.51,403.19 2182.54,404.66 2169.14,406.88 2157.51,408.83 2143.32,411.24 2122.88,414.87 2115.18,416.07"/>
        <lane id="13.0_1" index="1" speed="13.89" length="77.36" width="3.66" shape="2190.92,399.58 2181.95,401.05 2168.53,403.27 2156.90,405.22 2142.69,407.63 2122.28,411.26 2114.61,412.46"/>
        <lane id="13.0_2" index="2" speed="13.89" length="77.36" width="3.66" shape="2190.33,395.97 2181.36,397.44 2167.93,399.66 2156.29,401.61 2142.06,404.03 2121.68,407.65 2114.04,408.84"/>
        <lane id="13.0_3" index="3" speed="13.89" length="77.36" width="3.66" shape="2189.74,392.36 2180.76,393.83 2167.33,396.05 2155.68,398.00 2141.44,400.42 2121.07,404.04 2113.48,405.22"/>
        <lane id="13.0_4" index="4" disallow="all" speed="13.89" length="77.36" width="3.66" shape="2189.15,388.75 2180.17,390.22 2166.73,392.44 2155.07,394.39 2140.81,396.81 2120.47,400.43 2112.91,401.61" type="shoulder"/>
    </edge>
    <edge id="16.0" from="node_16_start" to="node_16_end" priority="-1" type="town" shape="5295.46,48.81 5290.19,49.41 5281.86,50.31 5272.69,51.37 5265.42,52.23 5256.77,53.23 5250.23,53.95 5243.29,54.78 5236.19,55.57 5228.92,56.39 5222.75,57.11 5215.57,57.93 5207.42,58.87 5201.15,59.57">
        <lane id="16.0_0" index="0" speed="13.89" length="93.29" width="3.66" shape="5296.75,61.56 5291.59,62.14 5283.29,63.04 5274.18,64.09 5266.91,64.95 5258.21,65.96 5251.69,66.68 5244.76,67.51 5237.62,68.30 5230.38,69.12 5224.22,69.84 5217.03,70.66 5208.87,71.60 5204.05,72.14"/>
        <lane id="16.0_1" index="1" speed="13.89" length="93.29" width="3.66" shape="5296.33,57.92 5291.19,58.50 5282.88,59.40 5273.75,60.46 5266.48,61.32 5257.80,62.32 5251.28,63.04 5244.34,63.87 5237.21,64.66 5229.96,65.48 5223.80,66.20 5216.61,67.02 5208.45,67.96 5203.65,68.50"/>
        <lane id="16.0_2" index="2" speed="13.89" length="93.29" width="3.66" shape="5295.92,54.28 5290.79,54.87 5282.47,55.77 5273.33,56.82 5266.06,57.68 5257.39,58.69 5250.86,59.40 5243.92,60.23 5236.80,61.03 5229.54,61.84 5223.38,62.56 5216.20,63.38 5208.04,64.32 5203.24,64.86"/>
        <lane id="16.0_3" index="3" disallow="all" speed="13.89" length="93.29" width="3.66" shape="5295.51,50.65 5290.39,51.23 5282.06,52.13 5272.90,53.19 5265.63,54.05 5256.98,55.05 5250.44,55.77 5243.50,56.60 5236.39,57.39 5229.13,58.21 5222.96,58.93 5215.78,59.75 5207.63,60.69 5202.83,61.22" type="shoulder"/>
    </edge>
    <edge id="17.0" from="node_17_start" to="junction_3" priority="-1" type="town" shape="2634.95,357.47 2607.83,360.78 2578.61,363.86 2545.79,367.17 2507.86,370.61 2486.29,372.27 2465.05,374.03 2442.87,375.68 2417.48,377.57 2396.42,379.15 2374.09,380.87 2351.43,382.79 2339.42,383.94">
        <lane id="17.0_0" index="0" speed="13.89" length="296.51" width="3.66" shape="2635.18,359.29 2608.04,362.60 2578.80,365.68 2545.96,368.99 2508.01,372.43 2486.44,374.09 2465.19,375.85 2443.01,377.50 2417.62,379.39 2396.56,380.97 2374.24,382.69 2351.59,384.61 2339.87,385.73"/>
    </edge>
    <edge id="18.0" from="junction_63" to="node_18_end" priority="-1" type="town" shape="1487.88,502.30 1474.60,504.30 1464.01,505.80 1451.79,507.48 1438.41,509.31 1425.24,511.14 1410.13,513.22 1391.42,515.88 1372.98,518.56 1351.59,521.75 1332.38,524.57 1318.84,526.65 1304.81,528.61 1291.24,530.58 1278.66,532.38 1274.96,532.84">
        <lane id="18.0_0" index="0" speed="13.89" length="215.15" width="3.66" shape="1488.15,504.11 1474.87,506.11 1464.26,507.61 1452.04,509.29 1438.66,511.12 1425.49,512.95 1410.38,515.03 1391.68,517.69 1373.25,520.37 1351.86,523.56 1332.65,526.38 1319.11,528.46 1305.07,530.42 1291.50,532.39 1278.91,534.19 1275.19,534.66"/>
    </edge>
    <edge id="2.0" from="node_16_end" to="j_merge_start_2" priority="-1" type="town" shape="5201.15,59.57 5199.05,59.80 5190.60,60.79 5183.58,61.59 5176.99,62.34 5172.16,62.91 5166.21,63.64 5155.37,64.85 5147.77,65.70 5138.01,66.85 5127.68,68.04 5117.91,69.13 5109.35,70.09 5100.63,71.10 5087.44,72.59 5078.12,73.66 5070.47,74.50 5062.33,75.48 5054.44,76.37 5047.36,77.19 5038.22,78.26 5030.84,79.05 5023.61,79.91 5014.44,80.97 5007.87,81.75 4995.36,83.16 4979.84,84.90 4963.22,86.80 4940.20,89.49 4920.81,91.56 4892.68,94.86 4873.98,96.97 4857.19,99.00 4836.90,101.21 4826.18,102.47 4809.56,104.41 4793.81,106.18 4782.27,107.52 4766.39,109.31 4754.90,110.67 4744.11,111.90 4730.81,113.41 4718.09,114.88 4700.75,116.80 4682.66,118.92 4668.27,120.54 4652.74,122.30 4639.57,123.80 4623.10,125.73 4612.55,126.90 4599.08,128.44 4583.35,130.26 4571.18,131.64 4553.22,133.66 4540.59,135.10 4524.95,136.92 4511.09,138.51 4496.99,140.06 4480.46,141.96 4467.35,143.45 4450.28,145.44 4438.23,146.82 4425.85,148.23 4418.29,149.11 4405.94,150.49 4394.23,151.85 4375.41,153.96 4360.80,155.68 4348.47,157.11 4335.48,158.57 4322.79,160.03 4308.78,161.65 4296.97,162.99 4283.36,164.56 4275.92,165.40 4267.31,166.44 4259.58,167.30 4248.02,168.62 4236.06,169.96 4228.80,170.82 4221.69,171.64 4208.80,173.14 4198.98,174.28 4185.57,175.74">
        <lane id="2.0_0" index="0" disallow="all" speed="13.89" length="1020.72" width="3.66" shape="5201.46,76.10 5200.94,76.16 5192.49,77.15 5185.44,77.95 5178.88,78.70 5174.13,79.26 5168.13,80.00 5157.20,81.22 5149.65,82.06 5139.92,83.21 5129.54,84.41 5119.74,85.50 5111.22,86.45 5102.50,87.46 5089.30,88.95 5079.96,90.03 5072.36,90.86 5064.24,91.84 5056.31,92.73 5049.27,93.55 5040.06,94.63 5032.69,95.42 5025.53,96.27 5016.35,97.33 5009.75,98.11 4997.20,99.53 4981.69,101.27 4965.11,103.16 4942.03,105.86 4922.64,107.93 4894.57,111.22 4875.89,113.33 4859.07,115.36 4838.73,117.58 4828.09,118.83 4811.44,120.77 4795.67,122.54 4784.14,123.88 4768.27,125.67 4756.80,127.03 4745.97,128.26 4732.68,129.77 4719.94,131.25 4702.61,133.16 4684.54,135.28 4670.12,136.91 4654.60,138.66 4641.46,140.16 4624.98,142.09 4614.40,143.27 4600.96,144.80 4585.23,146.62 4573.03,148.01 4555.07,150.03 4542.48,151.46 4526.84,153.28 4512.93,154.88 4498.83,156.43 4482.33,158.32 4469.24,159.81 4452.17,161.80 4440.10,163.18 4427.73,164.59 4420.15,165.47 4407.80,166.85 4396.09,168.21 4377.28,170.32 4362.71,172.04 4350.34,173.47 4337.34,174.93 4324.68,176.39 4310.66,178.01 4298.84,179.35 4285.23,180.92 4277.84,181.76 4269.21,182.80 4261.43,183.67 4249.87,184.99 4237.93,186.32 4230.71,187.18 4223.59,188.00 4210.70,189.50 4200.81,190.65 4187.35,192.11" type="shoulder"/>
        <lane id="2.0_1" index="1" speed="13.89" length="1020.72" width="3.66" shape="5201.06,72.47 5200.52,72.53 5192.07,73.52 5185.03,74.32 5178.46,75.07 5173.69,75.63 5167.70,76.36 5156.79,77.58 5149.24,78.43 5139.49,79.57 5129.12,80.77 5119.33,81.86 5110.80,82.82 5102.08,83.83 5088.89,85.32 5079.55,86.39 5071.94,87.23 5063.81,88.20 5055.89,89.10 5048.84,89.91 5039.65,90.99 5032.28,91.78 5025.10,92.63 5015.93,93.69 5009.33,94.48 4996.79,95.89 4981.28,97.63 4964.69,99.52 4941.62,102.22 4922.24,104.29 4894.15,107.59 4875.47,109.69 4858.65,111.73 4838.32,113.94 4827.67,115.19 4811.02,117.14 4795.26,118.91 4783.72,120.25 4767.85,122.04 4756.38,123.39 4745.56,124.63 4732.27,126.14 4719.53,127.61 4702.20,129.53 4684.13,131.65 4669.71,133.27 4654.19,135.03 4641.04,136.53 4624.56,138.46 4613.99,139.63 4600.54,141.17 4584.81,142.99 4572.62,144.37 4554.66,146.39 4542.06,147.83 4526.42,149.65 4512.52,151.24 4498.42,152.79 4481.92,154.69 4468.82,156.18 4451.75,158.17 4439.68,159.55 4427.31,160.96 4419.73,161.84 4407.39,163.22 4395.68,164.58 4376.87,166.69 4362.29,168.40 4349.92,169.84 4336.93,171.30 4324.26,172.76 4310.24,174.38 4298.43,175.72 4284.82,177.29 4277.41,178.12 4268.79,179.16 4261.02,180.03 4249.46,181.35 4237.52,182.69 4230.29,183.54 4223.17,184.36 4210.28,185.86 4200.40,187.01 4186.96,188.47"/>
        <lane id="2.0_2" index="2" speed="13.89" length="1020.72" width="3.66" shape="5200.66,68.83 5200.10,68.89 5191.65,69.88 5184.62,70.68 5178.04,71.43 5173.26,71.99 5167.27,72.73 5156.39,73.94 5148.82,74.79 5139.07,75.94 5128.71,77.13 5118.93,78.22 5110.39,79.18 5101.67,80.19 5088.47,81.68 5079.14,82.75 5071.52,83.59 5063.39,84.57 5055.48,85.46 5048.42,86.28 5039.24,87.35 5031.87,88.14 5024.67,89.00 5015.50,90.06 5008.91,90.84 4996.38,92.25 4980.87,93.99 4964.27,95.89 4941.22,98.58 4921.83,100.65 4893.73,103.95 4875.04,106.06 4858.23,108.09 4837.92,110.30 4827.24,111.56 4810.60,113.50 4794.85,115.27 4783.31,116.61 4767.44,118.40 4755.96,119.76 4745.14,120.99 4731.85,122.50 4719.12,123.97 4701.79,125.89 4683.71,128.01 4669.30,129.63 4653.77,131.39 4640.62,132.89 4624.14,134.82 4613.58,135.99 4600.13,137.53 4584.39,139.35 4572.21,140.73 4554.25,142.75 4541.64,144.19 4526.00,146.01 4512.11,147.60 4498.01,149.15 4481.50,151.05 4468.40,152.54 4451.33,154.53 4439.27,155.91 4426.89,157.32 4419.32,158.20 4406.98,159.58 4395.26,160.94 4376.45,163.05 4361.86,164.77 4349.51,166.20 4336.51,167.66 4323.84,169.12 4309.82,170.74 4298.01,172.08 4284.40,173.65 4276.98,174.49 4268.37,175.53 4260.61,176.39 4249.05,177.71 4237.10,179.05 4229.86,179.91 4222.74,180.73 4209.86,182.23 4200.00,183.37 4186.56,184.84"/>
        <lane id="2.0_3" index="3" speed="13.89" length="1020.72" width="3.66" shape="5200.27,65.19 5199.68,65.25 5191.23,66.24 5184.20,67.04 5177.62,67.79 5172.82,68.36 5166.85,69.09 5155.98,70.31 5148.40,71.15 5138.65,72.30 5128.30,73.50 5118.52,74.59 5109.97,75.54 5101.25,76.55 5088.06,78.04 5078.73,79.12 5071.10,79.95 5062.97,80.93 5055.06,81.82 5048.00,82.64 5038.83,83.72 5031.46,84.51 5024.25,85.36 5015.08,86.42 5008.50,87.20 4995.97,88.62 4980.46,90.36 4963.85,92.25 4940.81,94.95 4921.42,97.02 4893.31,100.31 4874.62,102.42 4857.82,104.45 4837.51,106.67 4826.82,107.92 4810.19,109.86 4794.43,111.63 4782.89,112.97 4767.02,114.76 4755.53,116.12 4744.73,117.35 4731.43,118.86 4718.71,120.34 4701.37,122.25 4683.29,124.37 4668.89,126.00 4653.36,127.75 4640.20,129.25 4623.73,131.18 4613.17,132.36 4599.71,133.89 4583.98,135.71 4571.80,137.10 4553.84,139.12 4541.22,140.55 4525.58,142.37 4511.70,143.97 4497.60,145.52 4481.08,147.41 4467.98,148.90 4450.91,150.89 4438.85,152.27 4426.48,153.68 4418.91,154.56 4406.56,155.94 4394.85,157.30 4376.03,159.41 4361.44,161.13 4349.09,162.56 4336.10,164.02 4323.42,165.48 4309.41,167.10 4297.59,168.44 4283.98,170.01 4276.56,170.85 4267.94,171.89 4260.20,172.76 4248.64,174.08 4236.68,175.41 4229.44,176.27 4222.32,177.09 4209.43,178.59 4199.59,179.74 4186.16,181.20"/>
        <lane id="2.0_4" index="4" disallow="all" speed="13.89" length="1020.72" width="3.66" shape="5199.87,61.55 5199.26,61.62 5190.81,62.61 5183.79,63.41 5177.20,64.16 5172.38,64.73 5166.42,65.46 5155.57,66.67 5147.98,67.52 5138.22,68.67 5127.89,69.86 5118.11,70.95 5109.56,71.91 5100.84,72.92 5087.65,74.41 5078.32,75.48 5070.68,76.32 5062.54,77.30 5054.65,78.19 5047.57,79.01 5038.42,80.08 5031.05,80.87 5023.82,81.73 5014.65,82.79 5008.08,83.57 4995.56,84.98 4980.05,86.72 4963.43,88.62 4940.40,91.31 4921.01,93.38 4892.89,96.68 4874.19,98.79 4857.40,100.82 4837.10,103.03 4826.39,104.29 4809.77,106.23 4794.02,108.00 4782.48,109.34 4766.60,111.13 4755.11,112.49 4744.32,113.72 4731.02,115.23 4718.30,116.70 4700.96,118.62 4682.87,120.74 4668.48,122.36 4652.95,124.12 4639.78,125.62 4623.31,127.55 4612.76,128.72 4599.29,130.26 4583.56,132.08 4571.39,133.46 4553.43,135.48 4540.80,136.92 4525.16,138.74 4511.29,140.33 4497.19,141.88 4480.67,143.78 4467.56,145.27 4450.49,147.26 4438.44,148.64 4426.06,150.05 4418.50,150.93 4406.15,152.31 4394.44,153.67 4375.62,155.78 4361.01,157.50 4348.68,158.93 4335.69,160.39 4323.00,161.85 4308.99,163.47 4297.18,164.81 4283.57,166.38 4276.13,167.22 4267.52,168.26 4259.79,169.12 4248.23,170.44 4236.27,171.78 4229.01,172.64 4221.90,173.46 4209.01,174.96 4199.18,176.10 4185.77,177.56" type="shoulder"/>
    </edge>
    <edge id="21.0" from="junction_63" to="j_merge_start_1" priority="-1" type="town" shape="1483.70,482.11 1481.57,482.35 1462.76,484.48 1442.16,486.92 1413.53,490.15 1372.60,494.83 1341.24,498.36 1309.84,501.78 1287.49,504.55 1261.24,507.46 1251.64,508.64 1236.86,510.28 1218.61,512.39 1201.33,514.28 1181.79,516.51 1166.78,518.20 1150.87,519.99 1134.00,521.95 1117.48,523.85 1101.29,525.56 1081.79,527.94 1063.00,530.00 1044.49,532.14 1008.60,536.19 989.70,538.39 974.38,540.08 953.97,542.43 935.67,544.52 915.06,546.83 893.38,549.36 875.55,551.40 857.38,553.46 838.20,555.68 813.18,558.48 788.51,561.39 770.23,563.48 755.04,565.21 732.53,567.77 718.68,569.38 704.89,570.91 686.39,573.05 670.76,574.79 652.04,576.97 633.90,579.05 616.68,580.98 599.81,582.95 581.91,584.89 566.96,586.64 556.32,587.85 540.89,589.63 522.50,591.57 504.29,593.43 487.05,595.00 469.95,596.35 450.71,597.72 432.17,598.86 409.97,599.96 391.09,600.72 374.47,601.14 361.72,601.56 350.33,601.84 337.69,602.04 324.36,602.09 311.73,602.04 296.68,601.99 281.84,601.78 266.66,601.46 252.12,600.98 240.99,600.58 227.59,600.04 215.77,599.48 202.53,598.68 192.34,598.07 182.41,597.49 170.88,596.73 161.33,596.11 142.61,594.94 123.66,593.79 103.16,592.79 91.75,591.75 82.43,591.17 72.21,590.52 62.16,589.89 51.32,589.18 37.64,588.34 25.87,587.60 18.31,587.10 9.38,586.54 0.00,585.96">