<?xml version="1.0" encoding="UTF-8"?>

<!-- generated on 2025-10-19 17:33:43 by Eclipse SUMO netconvert Version 1.23.1
<netconvertConfiguration xmlns:xsi="http://www.w3.org/2001/XMLSchema-instance" xsi:noNamespaceSchemaLocation="http://sumo.dlr.de/xsd/netconvertConfiguration.xsd">

    <input>
        <node-files value="/home/sdai/harry/TeraSim/jupiter/wb/jupiter_wb_tiles/tile_0135/tile_0135.nod.xml"/>
        <edge-files value="/home/sdai/harry/TeraSim/jupiter/wb/jupiter_wb_tiles/tile_0135/tile_0135.edg.xml"/>
        <connection-files value="/home/sdai/harry/TeraSim/jupiter/wb/jupiter_wb_tiles/tile_0135/tile_0135.con.xml"/>
    </input>

    <output>
        <output-file value="/home/sdai/harry/TeraSim/jupiter/wb/jupiter_wb_tiles/tile_0135/tile_0135.net.xml"/>
        <output.street-names value="true"/>
        <output.original-names value="true"/>
    </output>

    <processing>
        <geometry.remove value="false"/>
        <geometry.min-dist value="0.5"/>
        <edges.join value="false"/>
    </processing>

    <junctions>
        <no-internal-links value="false"/>
        <no-turnarounds value="true"/>
        <junctions.join value="true"/>
        <junctions.join-dist value="10"/>
        <junctions.corner-detail value="5"/>
        <junctions.internal-link-detail value="5"/>
        <junctions.limit-turn-speed value="5.5"/>
        <rectangular-lane-cut value="true"/>
        <check-lane-foes.all value="true"/>
    </junctions>

</netconvertConfiguration>
-->

<net version="1.20" junctionCornerDetail="5" junctionLinkDetail="5" rectangularLaneCut="true" limitTurnSpeed="5.50" checkLaneFoesAll="1" xmlns:xsi="http://www.w3.org/2001/XMLSchema-instance" xsi:noNamespaceSchemaLocation="http://sumo.dlr.de/xsd/net_file.xsd">

    <location netOffset="-738574.54,-3287508.81" convBoundary="0.00,0.00,7462.16,2687.56" origBoundary="0.00,0.00,747791.16,3290475.06" projParameter="!"/>

    <edge id=":j_merge_end_62_0" function="internal">
        <lane id=":j_merge_end_62_0_0" index="0" speed="13.89" length="32.11" width="3.66" shape="4337.18,2115.64 4328.38,2112.81 4322.27,2109.08 4316.16,2105.35 4307.35,2102.51"/>
        <lane id=":j_merge_end_62_0_1" index="1" speed="13.89" length="32.11" width="3.66" shape="4337.86,2112.04 4306.67,2106.10"/>
        <lane id=":j_merge_end_62_0_2" index="2" speed="13.89" length="32.11" width="3.66" shape="4338.54,2108.45 4307.35,2102.51"/>
    </edge>
    <edge id=":j_merge_start_62_0" function="internal">
        <lane id=":j_merge_start_62_0_0" index="0" speed="13.89" length="261.24" width="3.66" shape="5328.76,2303.89 5071.98,2255.81"/>
        <lane id=":j_merge_start_62_0_1" index="1" speed="13.89" length="261.24" width="3.66" shape="5329.43,2300.29 5072.65,2252.21"/>
    </edge>
    <edge id=":j_merge_start_62_2" function="internal">
        <lane id=":j_merge_start_62_2_0" index="0" speed="4.47" length="7.79" width="3.66" shape="5072.30,2254.17 5074.01,2255.85 5074.42,2257.29 5073.52,2258.47 5071.30,2259.41"/>
    </edge>
    <edge id=":junction_10_0" function="internal">
        <lane id=":junction_10_0_0" index="0" speed="13.89" length="50.69" width="3.66" shape="2424.95,1407.24 2386.35,1374.37"/>
    </edge>
    <edge id=":junction_10_1" function="internal">
        <lane id=":junction_10_1_0" index="0" speed="13.89" length="50.60" width="3.66" shape="2428.76,1402.08 2388.53,1371.43"/>
        <lane id=":junction_10_1_1" index="1" speed="13.89" length="50.60" width="3.66" shape="2430.99,1399.18 2390.71,1368.49"/>
    </edge>
    <edge id=":junction_120_0" function="internal">
        <lane id=":junction_120_0_0" index="0" speed="13.89" length="71.20" width="3.66" shape="3311.71,1851.32 3242.66,1833.96"/>
    </edge>
    <edge id=":junction_120_1" function="internal">
        <lane id=":junction_120_1_0" index="0" speed="13.89" length="71.61" width="3.66" shape="3311.71,1851.32 3243.28,1830.22"/>
        <lane id=":junction_120_1_1" index="1" speed="13.89" length="71.61" width="3.66" shape="3312.76,1847.81 3244.33,1826.72"/>
    </edge>
    <edge id=":junction_122_0" function="internal">
        <lane id=":junction_122_0_0" index="0" speed="13.89" length="57.35" width="3.66" shape="5434.67,2327.57 5378.44,2316.30"/>
    </edge>
    <edge id=":junction_122_1" function="internal">
        <lane id=":junction_122_1_0" index="0" speed="13.89" length="57.31" width="3.66" shape="5435.34,2323.97 5379.02,2313.36"/>
        <lane id=":junction_122_1_1" index="1" speed="13.89" length="57.31" width="3.66" shape="5436.01,2320.37 5379.70,2309.76"/>
    </edge>
    <edge id=":junction_127_0" function="internal">
        <lane id=":junction_127_0_0" index="0" speed="13.89" length="71.26" width="3.66" shape="3676.57,1973.72 3606.26,1962.13"/>
    </edge>
    <edge id=":junction_127_1" function="internal">
        <lane id=":junction_127_1_0" index="0" speed="13.89" length="177.98" width="3.66" shape="3677.44,1970.17 3645.79,1961.81 3589.66,1946.62 3534.52,1931.42 3505.83,1923.02"/>
        <lane id=":junction_127_1_1" index="1" speed="13.89" length="177.49" width="3.66" shape="3678.31,1966.61 3646.74,1958.28 3590.77,1943.14 3535.79,1927.99 3507.17,1919.61"/>
    </edge>
    <edge id=":node_140_end_0" function="internal">
        <lane id=":node_140_end_0_0" index="0" speed="13.89" length="0.30" width="3.66" shape="3117.59,1791.39 3117.31,1791.31"/>
        <lane id=":node_140_end_0_1" index="1" speed="13.89" length="0.30" width="3.66" shape="3118.68,1787.90 3118.39,1787.81"/>
    </edge>
    <edge id=":node_140_start_0" function="internal">
        <lane id=":node_140_start_0_0" index="0" speed="13.89" length="3.00" width="3.66" shape="3169.07,1807.30 3166.21,1806.42"/>
        <lane id=":node_140_start_0_1" index="1" speed="13.89" length="3.00" width="3.66" shape="3170.15,1803.80 3167.28,1802.92"/>
    </edge>
    <edge id=":node_142_end_0" function="internal">
        <lane id=":node_142_end_0_0" index="0" speed="13.89" length="0.30" width="3.66" shape="5632.68,2361.15 5632.38,2361.09"/>
        <lane id=":node_142_end_0_1" index="1" speed="13.89" length="0.30" width="3.66" shape="5633.36,2357.56 5633.07,2357.50"/>
    </edge>
    <edge id=":node_142_start_0" function="internal">
        <lane id=":node_142_start_0_0" index="0" speed="13.89" length="0.30" width="3.66" shape="6824.05,2585.70 6823.75,2585.64"/>
        <lane id=":node_142_start_0_1" index="1" speed="13.89" length="0.30" width="3.66" shape="6824.71,2582.10 6824.43,2582.04"/>
    </edge>
    <edge id=":node_143_start_0" function="internal">
        <lane id=":node_143_start_0_0" index="0" speed="13.89" length="0.30" width="3.66" shape="7097.95,2639.06 7097.67,2639.01"/>
        <lane id=":node_143_start_0_1" index="1" speed="13.89" length="0.30" width="3.66" shape="7098.64,2635.47 7098.33,2635.41"/>
    </edge>
    <edge id=":node_145_start_0" function="internal">
        <lane id=":node_145_start_0_0" index="0" speed="13.89" length="0.27" width="3.66" shape="3166.66,1815.61 3166.40,1815.55"/>
    </edge>
    <edge id=":node_146_start_0" function="internal">
        <lane id=":node_146_start_0_0" index="0" speed="13.89" length="0.30" width="3.66" shape="3222.39,1829.01 3222.10,1828.94"/>
    </edge>
    <edge id=":node_153_start_0" function="internal">
        <lane id=":node_153_start_0_0" index="0" speed="13.89" length="8.01" width="3.66" shape="2195.09,1224.28 2188.74,1219.39"/>
    </edge>
    <edge id=":node_153_start_1" function="internal">
        <lane id=":node_153_start_1_0" index="0" speed="13.89" length="7.99" width="3.66" shape="2195.08,1224.23 2188.74,1219.39"/>
        <lane id=":node_153_start_1_1" index="1" speed="13.89" length="7.99" width="3.66" shape="2197.31,1221.33 2190.95,1216.47"/>
    </edge>
    <edge id=":node_158_end_0" function="internal">
        <lane id=":node_158_end_0_0" index="0" speed="13.89" length="0.30" width="3.66" shape="2367.88,1360.28 2367.65,1360.11"/>
        <lane id=":node_158_end_0_1" index="1" speed="13.89" length="0.30" width="3.66" shape="2370.08,1357.36 2369.84,1357.18"/>
        <lane id=":node_158_end_0_2" index="2" speed="13.89" length="0.30" width="3.66" shape="2372.27,1354.43 2372.02,1354.24"/>
    </edge>
    <edge id=":node_162_start_0" function="internal">
        <lane id=":node_162_start_0_0" index="0" speed="13.89" length="3.19" width="3.66" shape="2303.32,1311.15 2300.78,1309.23"/>
    </edge>
    <edge id=":node_162_start_1" function="internal">
        <lane id=":node_162_start_1_0" index="0" speed="13.89" length="2.98" width="3.66" shape="2305.51,1308.23 2303.13,1306.42"/>
        <lane id=":node_162_start_1_1" index="1" speed="13.89" length="2.98" width="3.66" shape="2307.71,1305.30 2305.35,1303.51"/>
    </edge>
    <edge id=":node_789_end_0" function="internal">
        <lane id=":node_789_end_0_0" index="0" speed="13.89" length="7.75" width="3.66" shape="5575.95,2350.51 5568.36,2348.95"/>
    </edge>
    <edge id=":node_789_end_1" function="internal">
        <lane id=":node_789_end_1_0" index="0" speed="13.89" length="8.14" width="3.66" shape="5575.95,2350.51 5567.94,2349.01"/>
        <lane id=":node_789_end_1_1" index="1" speed="13.89" length="8.14" width="3.66" shape="5576.62,2346.91 5568.62,2345.41"/>
    </edge>
    <edge id=":node_790_end_0" function="internal">
        <lane id=":node_790_end_0_0" index="0" speed="13.89" length="0.35" width="3.66" shape="2995.37,1753.13 2994.97,1753.00"/>
        <lane id=":node_790_end_0_1" index="1" speed="13.89" length="0.35" width="3.66" shape="2996.44,1749.63 2996.17,1749.54"/>
    </edge>
    <edge id=":node_792_start_0" function="internal">
        <lane id=":node_792_start_0_0" index="0" speed="13.89" length="0.30" width="3.66" shape="5319.14,2315.13 5318.84,2315.16"/>
    </edge>
    <edge id=":node_833_end_0" function="internal">
        <lane id=":node_833_end_0_0" index="0" speed="13.89" length="4.88" width="3.66" shape="5528.04,2341.46 5524.18,2344.45"/>
        <lane id=":node_833_end_0_1" index="1" speed="13.89" length="4.88" width="3.66" shape="5528.73,2337.87 5524.86,2340.85"/>
    </edge>
    <edge id=":node_833_end_2" function="internal">
        <lane id=":node_833_end_2_0" index="0" speed="13.89" length="7.19" width="3.66" shape="5527.37,2344.21 5525.55,2337.26"/>
    </edge>

    <edge id="140.0" from="node_140_start" to="node_140_end" priority="-1" type="town" shape="3169.25,1801.61 3148.93,1795.41 3137.22,1791.81 3119.08,1786.11">
        <lane id="140.0_0" index="0" disallow="all" speed="13.89" length="50.89" width="3.66" shape="3165.14,1809.92 3146.26,1804.16 3134.51,1800.55 3116.49,1794.89" type="shoulder"/>
        <lane id="140.0_1" index="1" speed="13.89" length="50.89" width="3.66" shape="3166.21,1806.42 3147.33,1800.66 3135.59,1797.05 3117.59,1791.39"/>
        <lane id="140.0_2" index="2" speed="13.89" length="50.89" width="3.66" shape="3167.28,1802.92 3148.40,1797.16 3136.68,1793.56 3118.68,1787.90"/>
    </edge>
    <edge id="141.0" from="junction_120" to="node_140_start" priority="-1" type="town" shape="3245.27,1825.09 3220.12,1817.56 3190.41,1808.15 3169.25,1801.61">
        <lane id="141.0_0" index="0" speed="13.89" length="77.65" width="3.66" shape="3243.28,1830.22 3218.51,1822.81 3188.77,1813.39 3169.07,1807.30"/>
        <lane id="141.0_1" index="1" speed="13.89" length="77.65" width="3.66" shape="3244.33,1826.72 3219.58,1819.31 3189.87,1809.90 3170.15,1803.80"/>
    </edge>
    <edge id="142.0" from="node_142_start" to="node_142_end" priority="-1" type="town" shape="6824.90,2580.27 6785.61,2572.88 6762.26,2568.45 6736.84,2563.60 6704.70,2557.68 6675.89,2552.19 6643.47,2546.14 6611.06,2539.93 6573.60,2532.88 6540.83,2526.75 6499.86,2519.02 6455.65,2510.72 6428.89,2505.65 6387.83,2497.89 6355.07,2491.75 6315.74,2484.28 6280.88,2477.72 6245.11,2470.97 6203.30,2463.10 6172.45,2457.25 6142.92,2451.71 6103.85,2444.37 6069.43,2437.90 6033.14,2431.04 6013.83,2427.44 5982.28,2421.45 5956.91,2416.68 5928.62,2411.28 5901.02,2406.12 5877.82,2401.73 5852.79,2397.07 5827.70,2392.30 5799.12,2386.95 5761.84,2379.87 5734.48,2374.72 5704.78,2369.11 5671.58,2362.90 5633.55,2355.73">
        <lane id="142.0_0" index="0" speed="13.89" length="1212.04" width="3.66" shape="6823.75,2585.64 6784.60,2578.27 6761.24,2573.84 6735.83,2569.00 6703.69,2563.08 6674.88,2557.58 6642.45,2551.53 6610.04,2545.32 6572.59,2538.28 6539.82,2532.15 6498.85,2524.42 6454.64,2516.12 6427.87,2511.04 6386.82,2503.29 6354.05,2497.14 6314.72,2489.67 6279.87,2483.12 6244.10,2476.37 6202.28,2468.49 6171.44,2462.64 6141.91,2457.11 6102.84,2449.77 6068.42,2443.29 6032.13,2436.44 6012.82,2432.84 5981.26,2426.84 5955.89,2422.07 5927.60,2416.67 5900.01,2411.52 5876.81,2407.13 5851.78,2402.47 5826.69,2397.69 5798.10,2392.34 5760.82,2385.26 5733.47,2380.11 5703.77,2374.51 5670.57,2368.30 5632.68,2361.15"/>
        <lane id="142.0_1" index="1" speed="13.89" length="1212.04" width="3.66" shape="6824.43,2582.04 6785.27,2574.68 6761.92,2570.25 6736.51,2565.40 6704.37,2559.48 6675.55,2553.99 6643.13,2547.94 6610.72,2541.73 6573.27,2534.68 6540.50,2528.55 6499.52,2520.82 6455.31,2512.52 6428.55,2507.45 6387.49,2499.69 6354.73,2493.55 6315.40,2486.08 6280.54,2479.52 6244.77,2472.77 6202.96,2464.90 6172.11,2459.05 6142.59,2453.51 6103.52,2446.17 6069.09,2439.70 6032.80,2432.84 6013.49,2429.24 5981.94,2423.25 5956.57,2418.48 5928.28,2413.08 5900.68,2407.92 5877.49,2403.53 5852.45,2398.87 5827.36,2394.10 5798.78,2388.75 5761.50,2381.67 5734.14,2376.52 5704.45,2370.91 5671.25,2364.70 5633.36,2357.56"/>
    </edge>
    <edge id="143.0" from="node_143_start" to="node_142_start" priority="-1" type="town" shape="7098.82,2633.64 7087.01,2631.46 7073.69,2628.86 7060.75,2626.45 7045.57,2623.62 7028.94,2620.56 7008.49,2616.69 6981.47,2611.71 6957.34,2607.00 6942.02,2603.94 6927.70,2600.87 6912.40,2597.61 6896.96,2594.28 6883.06,2591.46 6867.72,2588.37 6851.41,2585.13 6824.90,2580.27">
        <lane id="143.0_0" index="0" speed="13.89" length="278.78" width="3.66" shape="7097.67,2639.01 7085.99,2636.85 7072.66,2634.25 7059.75,2631.85 7044.57,2629.02 7027.94,2625.96 7007.49,2622.09 6980.45,2617.10 6956.28,2612.39 6940.91,2609.32 6926.56,2606.24 6911.25,2602.98 6895.84,2599.65 6881.98,2596.84 6866.65,2593.75 6850.38,2590.52 6824.05,2585.70"/>
        <lane id="143.0_1" index="1" speed="13.89" length="278.78" width="3.66" shape="7098.33,2635.41 7086.67,2633.26 7073.35,2630.66 7060.42,2628.25 7045.24,2625.42 7028.61,2622.36 7008.16,2618.49 6981.13,2613.51 6956.99,2608.80 6941.65,2605.73 6927.32,2602.66 6912.02,2599.40 6896.59,2596.07 6882.70,2593.25 6867.36,2590.16 6851.07,2586.93 6824.71,2582.10"/>
    </edge>
    <edge id="144.0" from="node_144_start" to="node_143_start" priority="-1" type="town" shape="7462.15,2687.56 7450.42,2686.24 7438.94,2685.02 7431.95,2684.28 7420.35,2683.04 7408.85,2681.71 7395.65,2680.06 7381.28,2678.35 7364.94,2676.30 7348.64,2674.22 7331.67,2671.97 7317.81,2669.99 7303.82,2667.99 7289.88,2665.93 7271.62,2663.19 7258.18,2661.13 7244.93,2658.99 7231.21,2656.79 7215.12,2654.22 7197.90,2651.33 7178.28,2648.02 7160.04,2644.87 7140.61,2641.39 7119.92,2637.58 7104.78,2634.78 7098.82,2633.64">
        <lane id="144.0_0" index="0" speed="13.89" length="367.54" width="3.66" shape="7461.54,2693.02 7449.83,2691.70 7438.36,2690.48 7431.37,2689.74 7419.75,2688.50 7408.20,2687.16 7394.99,2685.51 7380.62,2683.80 7364.25,2681.75 7347.93,2679.66 7330.92,2677.41 7317.04,2675.42 7303.03,2673.42 7289.07,2671.36 7270.80,2668.62 7257.33,2666.55 7244.06,2664.41 7230.35,2662.21 7214.24,2659.64 7196.99,2656.74 7177.36,2653.43 7159.09,2650.28 7139.63,2646.79 7118.93,2642.98 7103.78,2640.18 7097.95,2639.06"/>
        <lane id="144.0_1" index="1" speed="13.89" length="367.54" width="3.66" shape="7461.95,2689.38 7450.22,2688.06 7438.75,2686.84 7431.76,2686.10 7420.15,2684.86 7408.63,2683.53 7395.43,2681.88 7381.06,2680.17 7364.71,2678.12 7348.41,2676.03 7331.42,2673.78 7317.55,2671.80 7303.56,2669.80 7289.61,2667.74 7271.35,2665.00 7257.90,2662.94 7244.64,2660.80 7230.92,2658.60 7214.83,2656.03 7197.60,2653.13 7177.98,2649.82 7159.73,2646.67 7140.29,2643.19 7119.59,2639.38 7104.45,2636.58 7098.64,2635.47"/>
    </edge>
    <edge id="145.0" from="node_145_start" to="junction_71" priority="-1" type="town" shape="3166.94,1813.79 3154.47,1811.10 3139.30,1807.26 3113.32,1800.84 3089.27,1794.52 3078.59,1791.81 3076.75,1791.40">
        <lane id="145.0_0" index="0" speed="13.89" length="92.79" width="3.66" shape="3166.40,1815.55 3154.06,1812.88 3138.86,1809.04 3112.87,1802.61 3088.81,1796.29 3078.15,1793.59 3076.35,1793.19"/>
    </edge>
    <edge id="146.0" from="node_146_start" to="node_145_start" priority="-1" type="town" shape="3222.67,1827.20 3201.16,1822.06 3182.77,1817.60 3174.42,1815.61 3166.94,1813.79">
        <lane id="146.0_0" index="0" speed="13.89" length="57.02" width="3.66" shape="3222.10,1828.94 3200.73,1823.84 3182.34,1819.38 3173.99,1817.39 3166.66,1815.61"/>
    </edge>
    <edge id="153.0" from="node_153_start" to="node_153_end" priority="-1" type="town" shape="2195.24,1217.43 2188.68,1212.46 2184.44,1209.19 2179.53,1205.46 2174.75,1201.86 2170.33,1198.43 2165.78,1195.03 2160.72,1191.19 2156.09,1187.75 2150.35,1183.43 2146.26,1180.39 2143.03,1177.98 2135.64,1172.53 2132.74,1170.43 2126.96,1166.19 2122.86,1163.25 2118.73,1160.27 2114.54,1157.27 2109.95,1154.03 2105.25,1150.67 2101.56,1148.09 2096.67,1144.70 2092.57,1141.89 2088.57,1139.22 2084.69,1136.66 2080.91,1134.19 2076.72,1131.53 2072.69,1129.00 2068.64,1126.51 2063.04,1123.11 2058.22,1120.26 2053.77,1117.66 2049.77,1115.37 2045.72,1113.05 2041.77,1110.85 2039.06,1109.34 2035.32,1107.31 2032.01,1105.55 2029.09,1103.98 2025.87,1102.29 2022.73,1100.69 2019.48,1099.03 2016.39,1097.48 2013.38,1095.99 2010.27,1094.44 2007.01,1092.86 2003.92,1091.37 2000.66,1089.83 1997.19,1088.19 1993.42,1086.47 1990.57,1085.14 1988.19,1084.11 1986.54,1083.38 1983.75,1082.16 1981.33,1081.11 1978.55,1079.92 1976.37,1079.01 1973.96,1077.99 1971.23,1076.86 1968.70,1075.79 1966.17,1074.77 1963.56,1073.73 1960.77,1072.58 1957.82,1071.41 1955.30,1070.40 1951.50,1068.92 1947.62,1067.43 1944.80,1066.36 1934.02,1062.20 1929.84,1060.63 1927.29,1059.67 1921.11,1057.30 1918.57,1056.36 1916.03,1055.42 1913.80,1054.57 1907.05,1052.09 1895.60,1047.96 1889.40,1045.73 1882.97,1043.42 1879.89,1042.33 1876.98,1041.31 1874.03,1040.30 1871.11,1039.25 1867.31,1037.90 1864.78,1037.02 1862.13,1036.05 1859.02,1034.96 1855.99,1033.88 1852.99,1032.81 1850.00,1031.76 1844.59,1029.83 1840.79,1028.48 1837.09,1027.16 1834.00,1026.08 1830.30,1024.76 1825.25,1022.99 1821.23,1021.60 1818.07,1020.49 1814.60,1019.25 1811.05,1017.98 1808.48,1017.10 1804.94,1015.86 1801.56,1014.65 1797.92,1013.37 1795.37,1012.49 1793.26,1011.74 1790.35,1010.68 1788.21,1009.95 1784.80,1008.71 1781.42,1007.55 1778.18,1006.40 1774.82,1005.22 1771.22,1003.95 1768.16,1002.87 1764.64,1001.62 1760.74,1000.25 1756.73,998.82 1752.18,997.20 1748.16,995.77 1745.13,994.73 1741.62,993.50 1738.49,992.39 1736.07,991.51 1731.55,989.91 1726.34,988.06 1718.29,985.25 1712.55,983.24 1707.61,981.50 1704.92,980.56 1695.31,977.16 1687.76,974.56 1682.71,972.77 1675.54,970.22 1667.85,967.45 1661.83,965.36 1655.28,962.98 1650.17,961.18 1645.68,959.59 1640.29,957.68 1634.08,955.49 1627.40,953.11 1622.93,951.51 1618.58,949.94 1612.47,947.73 1605.55,945.22 1600.52,943.40 1595.05,941.38 1589.61,939.40 1585.11,937.75 1580.59,936.09 1576.87,934.73 1573.82,933.62 1570.12,932.29 1566.66,931.02 1563.49,929.83 1559.70,928.45 1555.32,926.85 1552.10,925.70 1549.49,924.74 1546.00,923.45 1542.97,922.33 1539.68,921.14 1536.21,919.85 1533.02,918.67 1529.57,917.41 1523.59,915.19 1519.93,913.80 1516.80,912.64 1513.85,911.50 1510.29,910.14 1507.19,908.91 1503.63,907.52 1500.54,906.33 1496.81,904.85 1492.46,903.11 1488.85,901.68 1485.34,900.29 1481.38,898.69 1478.02,897.34 1475.41,896.31 1471.79,894.84 1468.84,893.66 1466.83,892.82 1464.57,891.91 1461.92,890.81 1459.51,889.81 1456.61,888.61 1452.81,887.03 1449.33,885.58 1446.70,884.48 1444.04,883.34 1440.06,881.64 1435.84,879.87 1433.15,878.71 1430.08,877.36 1427.46,876.24 1424.15,874.80 1421.50,873.68 1418.08,872.21 1415.62,871.12 1412.57,869.84 1409.97,868.67 1407.52,867.61 1405.08,866.54 1402.68,865.49 1400.33,864.49 1397.91,863.42 1395.28,862.30 1392.50,861.07 1390.00,859.98 1387.73,858.97 1384.89,857.75 1382.38,856.60 1379.79,855.51 1376.64,854.08 1372.84,852.42 1369.12,850.77 1365.78,849.29 1361.15,847.21 1356.96,845.39 1353.12,843.68 1349.99,842.31 1347.25,841.05 1344.51,839.82 1341.43,838.40 1337.85,836.75 1334.47,835.25 1331.55,833.90 1329.08,832.79 1325.92,831.34 1323.13,830.09 1320.32,828.80 1316.28,826.98 1313.49,825.71 1310.90,824.51 1308.35,823.36 1305.37,822.02 1302.19,820.57 1298.98,819.10 1295.24,817.40 1292.40,816.11 1289.48,814.75 1285.35,812.86 1280.62,810.69 1278.06,809.54 1274.09,807.70 1270.15,805.94 1266.75,804.37 1262.98,802.68 1259.82,801.24 1256.62,799.79 1252.43,797.88 1248.91,796.29 1245.37,794.70 1233.60,789.32 1226.93,786.28 1214.38,780.59 1209.24,778.25 1205.06,776.36 1201.00,774.50 1196.24,772.35 1193.56,771.12 1188.47,768.84 1184.77,767.15 1177.87,764.02 1174.16,762.35 1171.64,761.20 1168.29,759.69 1165.68,758.49 1162.65,757.11 1159.47,755.64 1157.11,754.60 1152.75,752.58 1148.84,750.80 1145.41,749.24 1141.47,747.44 1137.81,745.76 1134.40,744.26 1131.63,743.00 1129.08,741.82 1125.45,740.17 1122.50,738.81 1120.29,737.81 1117.18,736.40 1114.37,735.14 1111.48,733.82 1108.46,732.45 1105.82,731.25 1102.87,729.92 1099.72,728.48 1097.43,727.45 1095.15,726.41 1093.08,725.49 1090.78,724.43 1088.75,723.50 1085.05,721.83 1077.26,718.24 1069.93,714.93 1065.20,712.83 1058.55,709.81 1055.22,708.26 1047.68,704.82 1038.81,700.77 1034.81,698.93 1030.38,696.95 1023.43,693.78 1021.26,692.81 1018.20,691.43 1015.44,690.16 1013.01,689.07 1010.35,687.87 1008.24,686.90 1006.03,685.91 1003.65,684.83 1001.07,683.64 998.52,682.50 995.92,681.33 993.06,680.02 989.71,678.51 987.27,677.39 984.92,676.31 982.62,675.30 979.98,674.08 977.45,672.94 972.03,670.46 969.12,669.17 966.33,667.90 964.04,666.83 961.18,665.55 958.27,664.25 955.15,662.83 952.03,661.43 949.68,660.33 946.70,659.01 943.64,657.63 940.78,656.31 937.76,654.96 934.42,653.42 931.76,652.24 928.71,650.83 925.77,649.49 922.79,648.15 919.60,646.68 916.42,645.25 913.26,643.81 910.29,642.45 907.69,641.28 904.50,639.84 901.56,638.46 897.23,636.53 893.46,634.80 889.41,632.97 884.95,630.94 881.20,629.21 877.85,627.71 875.26,626.54 872.63,625.33 870.21,624.23 867.49,622.99 864.63,621.68 862.31,620.64 859.29,619.29 857.33,618.41 855.22,617.44 850.73,615.35 846.25,613.35 843.23,611.95 840.63,610.79 838.39,609.76 835.97,608.67 833.71,607.64 831.27,606.52 828.67,605.36 826.71,604.46 820.42,601.57 815.07,599.11 805.95,594.98 803.30,593.76 800.65,592.59 796.01,590.44 793.30,589.24 790.83,588.08 787.99,586.82 785.12,585.54 781.77,584.01 778.38,582.48 775.91,581.34 771.99,579.55 768.55,578.00 765.49,576.58 761.92,574.97 759.06,573.62 755.50,572.02 751.49,570.20 747.58,568.40 744.31,566.90 740.24,565.09 735.83,563.07 732.27,561.43 729.34,560.07 726.44,558.75 723.96,557.61 721.34,556.40 718.09,554.91 714.24,553.15 711.96,552.10 709.24,550.86 707.22,549.94 704.21,548.56 700.91,547.04 698.03,545.72 695.38,544.51 692.22,543.03 689.10,541.61 685.99,540.16 683.78,539.15 681.38,538.04 679.08,536.99 676.72,535.87 673.46,534.36 670.75,533.15 668.18,531.95 665.36,530.65 663.01,529.55 661.24,528.74 658.81,527.60 656.26,526.42 653.24,525.00 650.98,523.96 648.32,522.72 645.49,521.41 642.62,520.09 639.89,518.80 636.94,517.46 634.71,516.44 632.59,515.43 630.14,514.28 627.62,513.10 625.07,511.89 622.55,510.68 620.59,509.76 618.37,508.70 615.98,507.55 613.98,506.56 611.22,505.21 609.24,504.23 607.23,503.23 605.08,502.15 603.04,501.12 601.13,500.15 599.05,499.06 596.76,497.90 594.52,496.74 592.43,495.65 589.74,494.24 587.22,492.91 585.12,491.80 583.10,490.72 581.15,489.65 578.76,488.37 575.91,486.81 573.25,485.35 567.50,482.12 563.63,479.98 561.48,478.75 559.21,477.44 553.91,474.39 549.63,471.88 546.35,469.93 539.69,465.89 537.02,464.24 534.88,462.91 532.23,461.25 528.83,459.09 525.92,457.19 523.17,455.37 520.48,453.60 517.61,451.65 515.36,450.10 513.01,448.48 511.35,447.33 509.33,445.93 507.28,444.48 505.56,443.25 503.62,441.87 501.75,440.55 499.99,439.27 498.39,438.12 495.84,436.24 492.96,434.12 490.50,432.30 487.98,430.45 485.61,428.63 483.57,427.08 481.51,425.54 478.47,423.18 476.04,421.31 473.73,419.52 472.16,418.30 471.18,417.55 468.91,415.76 466.77,414.05 464.44,412.17 462.11,410.31 460.18,408.74 458.23,407.08 456.18,405.44 454.23,403.79 452.68,402.48 451.04,401.06 449.37,399.63 447.43,397.94 445.76,396.48 443.91,394.87 442.24,393.45 440.56,391.94 438.85,390.46 437.22,389.04 435.28,387.36 433.82,386.07 432.19,384.66 430.56,383.25 426.70,379.86 422.65,376.32 415.62,370.22 413.94,368.73 412.12,367.14 410.07,365.36 407.64,363.24 405.87,361.68 403.98,359.99 402.27,358.50 400.83,357.20 398.94,355.56 397.10,353.92 395.06,352.11 393.90,351.07 393.48,350.68 391.51,348.94 389.58,347.24 387.00,344.95 385.00,343.16 381.71,340.22 380.31,338.98 378.69,337.56 376.38,335.50 374.27,333.62 370.28,330.08 366.54,326.74 363.25,323.81 359.12,320.19 355.19,316.68 351.59,313.48 348.32,310.57 343.69,306.41 338.08,301.43 330.82,294.99 327.44,291.98 322.04,287.16 316.78,282.50 313.91,279.96 310.17,276.62 306.78,273.60 304.56,271.62 301.27,268.71 298.05,265.83 294.91,263.04 292.21,260.66 289.10,257.85 286.03,255.15 283.54,252.95 280.46,250.21 278.13,248.14 275.10,245.43 272.00,242.71 268.74,239.77 265.98,237.34 263.33,234.95 260.86,232.79 257.72,230.00 254.68,227.29 251.38,224.35 248.89,222.17 246.32,219.87 243.58,217.39 240.52,214.72 237.26,211.83 234.68,209.54 231.87,207.01 229.07,204.53 226.01,201.80 223.30,199.44 221.59,197.91 219.03,195.63 216.42,193.30 213.82,191.00 211.42,188.89 208.95,186.68 206.48,184.48 204.16,182.45 201.86,180.40 199.06,177.91 196.11,175.27 193.35,172.82 190.31,170.15 187.41,167.56 184.96,165.38 182.64,163.32 179.92,160.90 177.05,158.37 174.48,156.06 172.32,154.16 170.18,152.26 167.95,150.26 165.45,148.07 162.91,145.81 160.26,143.40 157.09,140.59 153.83,137.72 150.15,134.46 146.87,131.55 143.79,128.79 140.64,126.02 137.65,123.34 134.65,120.68 131.68,118.07 127.82,114.61 124.61,111.75 122.53,109.95 120.55,108.15 115.73,103.92 111.64,100.22 107.85,96.89 104.99,94.33 101.30,91.07 98.69,88.75 94.91,85.39 91.51,82.38 87.95,79.20 83.81,75.51 78.34,70.65 73.90,66.71 70.62,63.73 67.77,61.15 63.84,57.52 60.99,54.93 59.13,53.24 58.75,52.90 56.31,50.65 52.72,47.40 49.86,44.84 46.88,42.08 41.62,37.36 37.59,33.70 35.05,31.41 31.92,28.54 30.26,27.06 28.36,25.35 26.12,23.35 23.82,21.27 21.21,18.91 17.99,16.05 15.32,13.65 12.48,11.10 9.70,8.66 6.21,5.54 0.00,0.00">