<?xml version='1.0' encoding='utf-8'?>
<edges>
    <edge id="318.0" from="node_318_start" to="node_318_end" numLanes="3" speed="13.89" type="town" shape="632529.96,3280675.37 632566.59,3280672.69 632566.59,3280672.69 632622.59,3280668.66 632622.59,3280668.66 632660.18,3280665.99 632660.18,3280665.99 632699.61,3280663.06 632699.61,3280663.06 632739.52,3280660.25 632739.52,3280660.25 632793.17,3280656.37 632793.17,3280656.37 632862.15,3280651.43 632862.15,3280651.43 632875.43,3280650.50 632875.43,3280650.50 632889.00,3280649.52 632889.00,3280649.52 632902.69,3280648.55 632902.69,3280648.55 632915.78,3280647.62 632915.78,3280647.62 632928.95,3280646.70 632928.95,3280646.70 632941.27,3280645.82 632941.27,3280645.82 632952.59,3280645.01 632952.59,3280645.01 632961.11,3280644.42 632961.11,3280644.42 632969.56,3280643.82 632969.56,3280643.82 632977.88,3280643.21 632977.88,3280643.21 632988.45,3280642.46 632988.45,3280642.46 632999.36,3280641.72 632999.36,3280641.72 633009.72,3280640.97 633009.72,3280640.97 633021.38,3280640.12 633021.38,3280640.12 633030.59,3280639.47 633030.59,3280639.47 633043.56,3280638.57 633043.56,3280638.57 633053.07,3280637.88 633053.07,3280637.88 633061.96,3280637.23 633061.96,3280637.23 633072.77,3280636.44 633072.77,3280636.44 633082.29,3280635.75 633082.29,3280635.75 633089.82,3280635.23 633089.82,3280635.23 633100.99,3280634.44 633100.99,3280634.44 633113.55,3280633.52 633113.55,3280633.52 633125.28,3280632.66 633125.28,3280632.66 633137.50,3280631.79 633137.50,3280631.79 633149.22,3280630.97 633149.22,3280630.97 633161.94,3280630.06 633161.94,3280630.06 633173.21,3280629.23 633173.21,3280629.23 633185.21,3280628.34 633185.21,3280628.34 633197.55,3280627.46 633197.55,3280627.46 633210.41,3280626.55 633210.41,3280626.55 633220.80,3280625.87 633220.80,3280625.87 633236.96,3280624.73 633236.96,3280624.73 633252.89,3280623.58 633252.89,3280623.58 633266.41,3280622.59 633266.41,3280622.59 633284.37,3280621.27 633284.37,3280621.27 633301.27,3280620.09 633301.27,3280620.09 633317.58,3280618.98 633317.58,3280618.98 633336.37,3280617.64 633336.37,3280617.64 633355.32,3280616.28 633355.32,3280616.28 633372.90,3280615.00 633372.90,3280615.00 633387.07,3280614.03 633387.07,3280614.03 633399.45,3280613.16 633399.45,3280613.16 633414.86,3280612.04 633414.86,3280612.04 633430.27,3280610.94 633430.27,3280610.94 633441.05,3280610.14 633441.05,3280610.14 633455.47,3280609.17 633455.47,3280609.17 633472.50,3280608.06 633472.50,3280608.06 633490.92,3280607.00 633490.92,3280607.00 633508.27,3280606.11 633508.27,3280606.11 633525.65,3280605.33 633525.65,3280605.33 633544.45,3280604.71 633544.45,3280604.71 633558.42,3280604.38 633558.42,3280604.38 633569.70,3280604.19 633569.70,3280604.19 633588.77,3280604.04 633588.77,3280604.04 633606.14,3280604.05 633606.14,3280604.05 633621.64,3280604.18 633621.64,3280604.18 633635.92,3280604.45 633635.92,3280604.45 633647.53,3280604.76 633647.53,3280604.76 633659.51,3280605.14 633659.51,3280605.14 633673.93,3280605.76 633673.93,3280605.76 633688.05,3280606.45 633688.05,3280606.45 633705.52,3280607.47 633705.52,3280607.47 633723.86,3280608.74 633723.86,3280608.74 633737.73,3280609.80 633737.73,3280609.80 633754.44,3280611.31 633754.44,3280611.31 633775.26,3280613.34 633775.26,3280613.34 633794.24,3280615.37 633794.24,3280615.37 633821.72,3280618.70 633821.72,3280618.70 633847.35,3280622.20 633847.35,3280622.20 633864.96,3280624.91 633864.96,3280624.91 633881.23,3280627.61 633881.23,3280627.61 633901.11,3280631.08 633901.11,3280631.08 633920.66,3280634.59 633920.66,3280634.59 633939.06,3280638.02 633939.06,3280638.02 633959.35,3280641.94 633959.35,3280641.94 633978.69,3280645.75 633978.69,3280645.75 633992.43,3280648.47 633992.43,3280648.47 634012.29,3280652.39 634012.29,3280652.39 634031.38,3280656.23 634031.38,3280656.23 634050.95,3280660.13 634050.95,3280660.13 634074.68,3280664.90 634074.68,3280664.90 634096.83,3280669.29 634096.83,3280669.29 634113.51,3280672.61 634113.51,3280672.61 634130.26,3280675.92 634130.26,3280675.92 634148.86,3280679.62 634148.86,3280679.62 634168.05,3280683.41 634168.05,3280683.41 634187.93,3280687.33 634187.93,3280687.33 634201.08,3280689.91 634201.08,3280689.91 634216.10,3280692.86 634216.10,3280692.86 634232.03,3280696.03 634232.03,3280696.03 634245.44,3280698.75 634245.44,3280698.75 634256.36,3280700.95 634256.36,3280700.95 634271.40,3280703.95 634271.40,3280703.95 634288.48,3280707.39 634288.48,3280707.39 634307.09,3280711.15 634307.09,3280711.15 634325.13,3280714.71 634325.13,3280714.71 634345.60,3280718.76 634345.60,3280718.76 634364.18,3280722.45 634364.18,3280722.45 634383.09,3280726.18 634383.09,3280726.18 634399.66,3280729.49 634399.66,3280729.49 634415.50,3280732.62 634415.50,3280732.62 634429.22,3280735.35 634429.22,3280735.35 634443.36,3280738.15 634443.36,3280738.15 634459.83,3280741.42 634459.83,3280741.42 634475.20,3280744.50 634475.20,3280744.50 634493.33,3280748.13 634493.33,3280748.13 634507.79,3280751.00 634507.79,3280751.00 634519.85,3280753.39 634519.85,3280753.39 634531.51,3280755.72 634531.51,3280755.72 634546.46,3280758.70 634546.46,3280758.70 634563.17,3280762.04 634563.17,3280762.04 634577.72,3280764.93 634577.72,3280764.93 634594.42,3280768.30 634594.42,3280768.30 634613.41,3280772.06 634613.41,3280772.06 634631.05,3280775.54 634631.05,3280775.54 634644.75,3280778.24 634644.75,3280778.24 634658.08,3280780.91 634658.08,3280780.91 634671.11,3280783.48 634671.11,3280783.48 634684.20,3280786.13 634684.20,3280786.13 634701.20,3280789.45 634701.20,3280789.45 634713.79,3280791.98 634713.79,3280791.98 634725.75,3280794.39 634725.75,3280794.39 634739.91,3280797.20 634739.91,3280797.20 634753.35,3280799.90 634753.35,3280799.90 634767.16,3280802.66 634767.16,3280802.66 634782.93,3280805.81 634782.93,3280805.81 634796.44,3280808.51 634796.44,3280808.51 634809.28,3280811.10 634809.28,3280811.10 634822.44,3280813.75 634822.44,3280813.75 634835.31,3280816.30 634835.31,3280816.30 634848.82,3280819.00 634848.82,3280819.00 634863.89,3280821.98 634863.89,3280821.98 634875.21,3280824.26 634875.21,3280824.26 634890.54,3280827.36 634890.54,3280827.36 634907.18,3280830.62 634907.18,3280830.62 634923.17,3280833.95 634923.17,3280833.95 634941.71,3280837.60 634941.71,3280837.60 634955.44,3280840.35 634955.44,3280840.35 634969.36,3280843.13 634969.36,3280843.13 634986.35,3280846.52 634986.35,3280846.52 635001.04,3280849.47 635001.04,3280849.47 635014.36,3280852.10 635014.36,3280852.10 635031.32,3280855.50 635031.32,3280855.50 635055.77,3280860.37">
        <lane index="0" width="3.66" type="shoulder" disallow="all" />
        <lane index="1" width="3.66" />
        <lane index="2" width="3.66" />
    </edge>
    <edge id="319.0" from="node_319_start" to="node_319_end" numLanes="3" speed="13.89" type="town" shape="631281.62,3280764.41 631317.29,3280761.87 631317.29,3280761.87 631349.09,3280759.59">
        <lane index="0" width="3.66" type="shoulder" disallow="all" />
        <lane index="1" width="3.66" />
        <lane index="2" width="3.66" />
    </edge>
    <edge id="321.0" from="node_321_start" to="node_318_start" numLanes="3" speed="13.89" type="town" shape="632516.82,3280676.26 632519.90,3280676.06 632519.90,3280676.06 632529.96,3280675.37">
        <lane index="0" width="3.66" type="shoulder" disallow="all" />
        <lane index="1" width="3.66" />
        <lane index="2" width="3.66" />
    </edge>
    <edge id="323.0" from="node_323_start" to="j_merge_start_23" numLanes="1" speed="13.89" type="town" shape="629919.08,3280831.98 629931.07,3280833.92 629931.07,3280833.92 629948.06,3280836.10 629948.06,3280836.10 629963.00,3280837.68 629963.00,3280837.68 629980.86,3280839.22 629980.86,3280839.22 629999.20,3280840.43 629999.20,3280840.43 630035.31,3280841.71 630035.31,3280841.71 630052.10,3280842.03 630052.10,3280842.03 630066.68,3280842.11 630066.68,3280842.11 630083.98,3280841.77 630083.98,3280841.77 630097.78,3280841.20 630097.78,3280841.20 630119.21,3280840.16">
        <lane index="0" width="3.66" />
    </edge>
    <edge id="324.0" from="node_324_start" to="node_324_end" numLanes="3" speed="13.89" type="town" shape="631690.26,3280735.34 631718.31,3280733.32 631718.31,3280733.32 631759.59,3280730.32 631759.59,3280730.32 631801.04,3280727.44 631801.04,3280727.44 631906.77,3280719.79">
        <lane index="0" width="3.66" type="shoulder" disallow="all" />
        <lane index="1" width="3.66" />
        <lane index="2" width="3.66" />
    </edge>
    <edge id="325.0" from="node_325_start" to="node_324_start" numLanes="3" speed="13.89" type="town" shape="631676.57,3280736.33 631690.26,3280735.34">
        <lane index="0" width="3.66" type="shoulder" disallow="all" />
        <lane index="1" width="3.66" />
        <lane index="2" width="3.66" />
    </edge>
    <edge id="326.0" from="junction_79" to="node_326_end" numLanes="2" speed="13.89" type="town" shape="629098.48,3280920.50 629127.93,3280918.38 629127.93,3280918.38 629158.03,3280916.25 629158.03,3280916.25 629168.27,3280915.51">
        <lane index="0" width="3.66" />
        <lane index="1" width="3.66" />
    </edge>
    <edge id="328.0" from="node_328_start" to="node_321_start" numLanes="3" speed="13.89" type="town" shape="631973.31,3280715.09 631991.93,3280713.80 631991.93,3280713.80 632027.09,3280711.23 632027.09,3280711.23 632060.19,3280708.94 632060.19,3280708.94 632098.58,3280706.10 632098.58,3280706.10 632120.71,3280704.55 632120.71,3280704.55 632148.43,3280702.55 632148.43,3280702.55 632176.67,3280700.61 632176.67,3280700.61 632211.41,3280698.06 632211.41,3280698.06 632248.00,3280695.45 632248.00,3280695.45 632292.09,3280692.24 632292.09,3280692.24 632343.17,3280688.60 632343.17,3280688.60 632379.71,3280686.01 632379.71,3280686.01 632424.89,3280682.76 632424.89,3280682.76 632474.54,3280679.20 632474.54,3280679.20 632516.82,3280676.26">
        <lane index="0" width="3.66" type="shoulder" disallow="all" />
        <lane index="1" width="3.66" />
        <lane index="2" width="3.66" />
    </edge>
    <edge id="329.0" from="node_324_end" to="node_328_start" numLanes="3" speed="13.89" type="town" shape="631906.77,3280719.79 631930.93,3280718.04 631930.93,3280718.04 631973.31,3280715.09">
        <lane index="0" width="3.66" type="shoulder" disallow="all" />
        <lane index="1" width="3.66" />
        <lane index="2" width="3.66" />
    </edge>
    <edge id="331.0" from="junction_79" to="node_331_end" numLanes="1" speed="13.89" type="town" shape="629097.79,3280913.12 629121.49,3280908.67 629121.49,3280908.67 629146.60,3280903.82 629146.60,3280903.82 629172.81,3280898.74 629172.81,3280898.74 629203.87,3280892.39 629203.87,3280892.39 629228.74,3280887.51 629228.74,3280887.51 629258.38,3280881.66 629258.38,3280881.66 629293.57,3280874.56 629293.57,3280874.56 629303.46,3280872.56">
        <lane index="0" width="3.66" />
    </edge>
    <edge id="333.0" from="node_333_start" to="junction_79" numLanes="3" speed="13.89" type="town" shape="627588.99,3280634.44 627599.10,3280637.71 627599.10,3280637.71 627618.61,3280644.02 627618.61,3280644.02 627638.98,3280650.54 627638.98,3280650.54 627666.28,3280659.40 627666.28,3280659.40 627719.67,3280676.52 627719.67,3280676.52 627752.49,3280687.14 627752.49,3280687.14 627778.38,3280695.54 627778.38,3280695.54 627787.86,3280698.54 627787.86,3280698.54 627801.06,3280702.80 627801.06,3280702.80 627815.27,3280707.37 627815.27,3280707.37 627829.94,3280712.03 627829.94,3280712.03 627845.40,3280717.03 627845.40,3280717.03 627862.95,3280722.65 627862.95,3280722.65 627880.74,3280728.41 627880.74,3280728.41 627893.63,3280732.57 627893.63,3280732.57 627914.56,3280739.35 627914.56,3280739.35 627934.71,3280745.84 627934.71,3280745.84 627951.29,3280751.18 627951.29,3280751.18 627974.47,3280758.71 627974.47,3280758.71 627998.74,3280766.56 627998.74,3280766.56 628022.09,3280774.07 628022.09,3280774.07 628043.18,3280780.87 628043.18,3280780.87 628063.43,3280787.39 628063.43,3280787.39 628083.71,3280793.96 628083.71,3280793.96 628102.42,3280800.01 628102.42,3280800.01 628121.54,3280806.18 628121.54,3280806.18 628145.91,3280814.06 628145.91,3280814.06 628167.67,3280821.10 628167.67,3280821.10 628192.56,3280829.12 628192.56,3280829.12 628220.30,3280838.03 628220.30,3280838.03 628244.42,3280845.68 628244.42,3280845.68 628294.01,3280861.32 628294.01,3280861.32 628313.72,3280867.36 628313.72,3280867.36 628338.11,3280874.34 628338.11,3280874.34 628361.97,3280880.77 628361.97,3280880.77 628373.57,3280883.85 628373.57,3280883.85 628392.53,3280888.54 628392.53,3280888.54 628416.29,3280894.15 628416.29,3280894.15 628434.95,3280898.37 628434.95,3280898.37 628457.39,3280903.11 628457.39,3280903.11 628479.88,3280907.48 628479.88,3280907.48 628492.91,3280909.88 628492.91,3280909.88 628509.79,3280912.85 628509.79,3280912.85 628534.57,3280916.77 628534.57,3280916.77 628556.94,3280920.14 628556.94,3280920.14 628585.65,3280923.95 628585.65,3280923.95 628605.87,3280926.38 628605.87,3280926.38 628630.11,3280928.93 628630.11,3280928.93 628655.87,3280931.34 628655.87,3280931.34 628683.15,3280933.28 628683.15,3280933.28 628710.92,3280934.93 628710.92,3280934.93 628737.45,3280936.13 628737.45,3280936.13 628771.40,3280937.14 628771.40,3280937.14 628788.89,3280937.32 628788.89,3280937.32 628803.78,3280937.35 628803.78,3280937.35 628823.76,3280937.15 628823.76,3280937.15 628841.24,3280936.86 628841.24,3280936.86 628861.02,3280936.24 628861.02,3280936.24 628880.79,3280935.29 628880.79,3280935.29 628903.27,3280934.09 628903.27,3280934.09 628919.93,3280933.06 628919.93,3280933.06 628941.94,3280931.62 628941.94,3280931.62 628961.21,3280930.35 628961.21,3280930.35 628983.25,3280928.75 628983.25,3280928.75 629007.04,3280927.03 629007.04,3280927.03 629031.31,3280925.29 629031.31,3280925.29 629050.07,3280923.93">
        <lane index="0" width="3.66" type="shoulder" disallow="all" />
        <lane index="1" width="3.66" />
        <lane index="2" width="3.66" />
    </edge>
    <edge id="334.0" from="j_merge_end_23" to="node_319_start" numLanes="3" speed="13.89" type="town" shape="630357.68,3280830.60 630388.57,3280828.33 630388.57,3280828.33 630410.18,3280826.78 630410.18,3280826.78 630434.14,3280825.08 630434.14,3280825.08 630464.40,3280822.93 630464.40,3280822.93 630492.23,3280820.88 630492.23,3280820.88 630536.13,3280817.75 630536.13,3280817.75 630556.02,3280816.37 630556.02,3280816.37 630582.69,3280814.43 630582.69,3280814.43 630618.53,3280811.87 630618.53,3280811.87 630655.99,3280809.16 630655.99,3280809.16 630700.36,3280806.12 630700.36,3280806.12 630741.57,3280803.14 630741.57,3280803.14 630792.49,3280799.55 630792.49,3280799.55 630856.60,3280794.93 630856.60,3280794.93 630882.51,3280793.05 630882.51,3280793.05 630916.74,3280790.60 630916.74,3280790.60 630955.17,3280787.79 630955.17,3280787.79 630999.36,3280784.67 630999.36,3280784.67 631024.24,3280782.81 631024.24,3280782.81 631053.47,3280780.75 631053.47,3280780.75 631092.58,3280777.94 631092.58,3280777.94 631137.41,3280774.71 631137.41,3280774.71 631175.59,3280772.00 631175.59,3280772.00 631235.70,3280767.71 631235.70,3280767.71 631273.68,3280764.98 631273.68,3280764.98 631281.62,3280764.41">
        <lane index="0" width="3.66" type="shoulder" disallow="all" />
        <lane index="1" width="3.66" />
        <lane index="2" width="3.66" />
    </edge>
    <edge id="335.0" from="node_326_end" to="node_335_end" numLanes="3" speed="13.89" type="town" shape="629168.27,3280915.51 629180.24,3280914.70 629180.24,3280914.70 629199.57,3280913.25 629199.57,3280913.25 629219.10,3280911.90 629219.10,3280911.90 629240.72,3280910.34 629240.72,3280910.34 629268.33,3280908.35 629268.33,3280908.35 629289.29,3280906.80 629289.29,3280906.80 629313.00,3280905.20 629313.00,3280905.20 629338.99,3280903.35 629338.99,3280903.35 629360.82,3280901.81 629360.82,3280901.81 629385.24,3280900.06 629385.24,3280900.06 629407.16,3280898.51 629407.16,3280898.51 629432.99,3280896.69 629432.99,3280896.69 629458.29,3280894.88 629458.29,3280894.88 629495.16,3280892.27 629495.16,3280892.27 629519.43,3280890.48 629519.43,3280890.48 629543.27,3280888.81 629543.27,3280888.81 629568.08,3280887.00 629568.08,3280887.00 629591.25,3280885.40 629591.25,3280885.40 629610.74,3280884.05 629610.74,3280884.05 629654.39,3280880.84 629654.39,3280880.84 629688.45,3280878.39 629688.45,3280878.39 629723.48,3280875.97 629723.48,3280875.97 629758.17,3280873.41 629758.17,3280873.41 629784.59,3280871.55 629784.59,3280871.55 629818.06,3280869.14 629818.06,3280869.14 629853.37,3280866.66 629853.37,3280866.66 629887.05,3280864.22 629887.05,3280864.22 629919.45,3280861.86 629919.45,3280861.86 629947.07,3280859.85 629947.07,3280859.85 629975.41,3280857.83 629975.41,3280857.83 629981.28,3280857.40">
        <lane index="0" width="3.66" type="shoulder" disallow="all" />
        <lane index="1" width="3.66" />
        <lane index="2" width="3.66" />
    </edge>
    <edge id="337.0" from="node_319_end" to="node_325_start" numLanes="3" speed="13.89" type="town" shape="631349.09,3280759.59 631353.37,3280759.28 631353.37,3280759.28 631389.09,3280756.70 631389.09,3280756.70 631430.67,3280753.89 631430.67,3280753.89 631478.55,3280750.45 631478.55,3280750.45 631525.69,3280747.10 631525.69,3280747.10 631556.69,3280744.94 631556.69,3280744.94 631597.69,3280742.04 631597.69,3280742.04 631634.17,3280739.42 631634.17,3280739.42 631674.78,3280736.46 631674.78,3280736.46 631676.57,3280736.33">
        <lane index="0" width="3.66" type="shoulder" disallow="all" />
        <lane index="1" width="3.66" />
        <lane index="2" width="3.66" />
    </edge>
    <edge id="341.0" from="node_335_end" to="j_merge_start_23" numLanes="2" speed="13.89" type="town" shape="629981.28,3280857.40 630007.94,3280855.47 630007.94,3280855.47 630036.54,3280853.52 630036.54,3280853.52 630066.09,3280851.30 630066.09,3280851.30 630094.02,3280849.38 630094.02,3280849.38 630119.96,3280847.52">
        <lane index="0" width="3.66" />
        <lane index="1" width="3.66" />
    </edge>
    <edge id="343.0" from="node_343_start" to="node_343_end" numLanes="3" speed="13.89" type="town" shape="636286.69,3281105.37 636294.48,3281106.89 636294.48,3281106.89 636300.43,3281108.05">
        <lane index="0" width="3.66" type="shoulder" disallow="all" />
        <lane index="1" width="3.66" />
        <lane index="2" width="3.66" />
    </edge>
    <edge id="344.0" from="node_344_start" to="node_344_end" numLanes="3" speed="13.89" type="town" shape="635463.12,3280941.58 635475.95,3280944.14">
        <lane index="0" width="3.66" type="shoulder" disallow="all" />
        <lane index="1" width="3.66" />
        <lane index="2" width="3.66" />
    </edge>
    <edge id="345.0" from="node_345_start" to="node_345_end" numLanes="3" speed="13.89" type="town" shape="636113.96,3281071.04 636121.94,3281072.62 636121.94,3281072.62 636136.36,3281075.51 636136.36,3281075.51 636148.04,3281077.85 636148.04,3281077.85 636158.75,3281079.96 636158.75,3281079.96 636168.61,3281081.92 636168.61,3281081.92 636179.07,3281084.01">
        <lane index="0" width="3.66" type="shoulder" disallow="all" />
        <lane index="1" width="3.66" />
        <lane index="2" width="3.66" />
    </edge>
    <edge id="347.0" from="junction_80" to="node_347_end" numLanes="2" speed="13.89" type="town" shape="635716.61,3280991.89 635727.05,3280993.97 635727.05,3280993.97 635736.37,3280995.80 635736.37,3280995.80 635745.20,3280997.58 635745.20,3280997.58 635754.96,3280999.52 635754.96,3280999.52 635771.05,3281002.74 635771.05,3281002.74 635784.56,3281005.40 635784.56,3281005.40 635792.88,3281007.06">
        <lane index="0" width="3.66" />
        <lane index="1" width="3.66" />
    </edge>
    <edge id="349.0" from="node_343_end" to="node_349_end" numLanes="3" speed="13.89" type="town" shape="636300.43,3281108.05 636305.48,3281109.03 636305.48,3281109.03 636315.18,3281110.96 636315.18,3281110.96 636325.27,3281113.02 636325.27,3281113.02 636335.99,3281115.16 636335.99,3281115.16 636346.06,3281117.15 636346.06,3281117.15 636355.22,3281118.94 636355.22,3281118.94 636363.83,3281120.65 636363.83,3281120.65 636375.81,3281123.01 636375.81,3281123.01 636386.74,3281125.16 636386.74,3281125.16 636394.73,3281126.77 636394.73,3281126.77 636403.58,3281128.52 636403.58,3281128.52 636413.33,3281130.46 636413.33,3281130.46 636423.23,3281132.43 636423.23,3281132.43 636432.97,3281134.40 636432.97,3281134.40 636441.05,3281136.00 636441.05,3281136.00 636448.80,3281137.56 636448.80,3281137.56 636454.52,3281138.72 636454.52,3281138.72 636463.38,3281140.51 636463.38,3281140.51 636471.34,3281142.11 636471.34,3281142.11 636484.99,3281144.86 636484.99,3281144.86 636495.92,3281147.03 636495.92,3281147.03 636510.93,3281150.05 636510.93,3281150.05 636525.12,3281152.90 636525.12,3281152.90 636538.82,3281155.63 636538.82,3281155.63 636552.49,3281158.36 636552.49,3281158.36 636565.47,3281160.97 636565.47,3281160.97 636578.32,3281163.54 636578.32,3281163.54 636589.00,3281165.67 636589.00,3281165.67 636602.69,3281168.42 636602.69,3281168.42 636615.12,3281170.90 636615.12,3281170.90 636629.42,3281173.75 636629.42,3281173.75 636646.93,3281177.26 636646.93,3281177.26 636655.19,3281178.91">
        <lane index="0" width="3.66" type="shoulder" disallow="all" />
        <lane index="1" width="3.66" />
        <lane index="2" width="3.66" />
    </edge>
    <edge id="350.0" from="node_345_end" to="node_343_start" numLanes="3" speed="13.89" type="town" shape="636179.07,3281084.01 636187.56,3281085.66 636187.56,3281085.66 636197.86,3281087.73 636197.86,3281087.73 636209.98,3281090.13 636209.98,3281090.13 636221.46,3281092.40 636221.46,3281092.40 636232.87,3281094.63 636232.87,3281094.63 636243.72,3281096.77 636243.72,3281096.77 636253.49,3281098.68 636253.49,3281098.68 636264.63,3281100.92 636264.63,3281100.92 636274.78,3281102.97 636274.78,3281102.97 636284.97,3281105.03 636284.97,3281105.03 636286.69,3281105.37">
        <lane index="0" width="3.66" type="shoulder" disallow="all" />
        <lane index="1" width="3.66" />
        <lane index="2" width="3.66" />
    </edge>
    <edge id="351.0" from="node_344_end" to="junction_80" numLanes="3" speed="13.89" type="town" shape="635475.95,3280944.14 635480.54,3280945.05 635480.54,3280945.05 635493.59,3280947.65 635493.59,3280947.65 635505.68,3280950.04 635505.68,3280950.04 635519.14,3280952.68 635519.14,3280952.68 635532.46,3280955.35 635532.46,3280955.35 635543.60,3280957.55 635543.60,3280957.55 635554.57,3280959.73 635554.57,3280959.73 635564.24,3280961.67 635564.24,3280961.67 635578.35,3280964.50 635578.35,3280964.50 635592.89,3280967.37 635592.89,3280967.37 635608.06,3280970.38 635608.06,3280970.38 635623.30,3280973.40 635623.30,3280973.40 635629.48,3280974.60">
        <lane index="0" width="3.66" type="shoulder" disallow="all" />
        <lane index="1" width="3.66" />
        <lane index="2" width="3.66" />
    </edge>
    <edge id="353.0" from="node_347_end" to="node_345_start" numLanes="3" speed="13.89" type="town" shape="635792.88,3281007.06 635801.13,3281008.71 635801.13,3281008.71 635815.53,3281011.58 635815.53,3281011.58 635829.32,3281014.29 635829.32,3281014.29 635838.38,3281016.10 635838.38,3281016.10 635851.69,3281018.77 635851.69,3281018.77 635864.10,3281021.23 635864.10,3281021.23 635876.54,3281023.71 635876.54,3281023.71 635892.07,3281026.78 635892.07,3281026.78 635905.74,3281029.52 635905.74,3281029.52 635915.95,3281031.54 635915.95,3281031.54 635928.98,3281034.14 635928.98,3281034.14 635939.56,3281036.26 635939.56,3281036.26 635950.99,3281038.51 635950.99,3281038.51 635962.57,3281040.83 635962.57,3281040.83 635974.82,3281043.26 635974.82,3281043.26 635986.51,3281045.58 635986.51,3281045.58 635997.88,3281047.85 635997.88,3281047.85 636009.84,3281050.25 636009.84,3281050.25 636020.58,3281052.40 636020.58,3281052.40 636035.17,3281055.33 636035.17,3281055.33 636051.20,3281058.54 636051.20,3281058.54 636064.87,3281061.28 636064.87,3281061.28 636081.16,3281064.53 636081.16,3281064.53 636096.05,3281067.49 636096.05,3281067.49 636110.04,3281070.26 636110.04,3281070.26 636113.96,3281071.04">
        <lane index="0" width="3.66" type="shoulder" disallow="all" />
        <lane index="1" width="3.66" />
        <lane index="2" width="3.66" />
    </edge>
    <edge id="354.0" from="node_354_start" to="node_344_start" numLanes="3" speed="13.89" type="town" shape="635121.23,3280873.33 635133.52,3280875.79 635133.52,3280875.79 635150.61,3280879.18 635150.61,3280879.18 635166.20,3280882.28 635166.20,3280882.28 635183.86,3280885.78 635183.86,3280885.78 635195.80,3280888.20 635195.80,3280888.20 635213.88,3280891.85 635213.88,3280891.85 635230.89,3280895.21 635230.89,3280895.21 635250.13,3280899.07 635250.13,3280899.07 635268.28,3280902.69 635268.28,3280902.69 635287.41,3280906.52 635287.41,3280906.52 635304.99,3280910.02 635304.99,3280910.02 635323.15,3280913.69 635323.15,3280913.69 635338.65,3280916.76 635338.65,3280916.76 635355.72,3280920.17 635355.72,3280920.17 635373.57,3280923.79 635373.57,3280923.79 635389.73,3280927.01 635389.73,3280927.01 635408.10,3280930.70 635408.10,3280930.70 635424.19,3280933.86 635424.19,3280933.86 635437.56,3280936.55 635437.56,3280936.55 635453.38,3280939.66 635453.38,3280939.66 635463.12,3280941.58">
        <lane index="0" width="3.66" type="shoulder" disallow="all" />
        <lane index="1" width="3.66" />
        <lane index="2" width="3.66" />
    </edge>
    <edge id="357.0" from="junction_80" to="node_357_end" numLanes="1" speed="13.89" type="town" shape="635717.88,3280984.63 635723.58,3280984.98 635723.58,3280984.98 635730.76,3280985.29 635730.76,3280985.29 635740.62,3280985.74 635740.62,3280985.74 635749.28,3280986.08 635749.28,3280986.08 635759.33,3280986.48 635759.33,3280986.48 635772.69,3280986.92 635772.69,3280986.92 635796.40,3280987.75">
        <lane index="0" width="3.66" />
    </edge>
    <edge id="359.0" from="node_318_end" to="node_354_start" numLanes="3" speed="13.89" type="town" shape="635055.77,3280860.37 635076.31,3280864.44 635076.31,3280864.44 635096.60,3280868.43 635096.60,3280868.43 635118.09,3280872.70 635118.09,3280872.70 635121.23,3280873.33">
        <lane index="0" width="3.66" type="shoulder" disallow="all" />
        <lane index="1" width="3.66" />
        <lane index="2" width="3.66" />
    </edge>
    <edge id="361.0" from="node_357_end" to="node_361_end" numLanes="1" speed="13.89" type="town" shape="635796.40,3280987.75 635811.59,3280988.23 635811.59,3280988.23 635829.99,3280988.80 635829.99,3280988.80 635843.26,3280989.14 635843.26,3280989.14 635858.87,3280989.51 635858.87,3280989.51 635870.01,3280989.83 635870.01,3280989.83 635882.95,3280990.28 635882.95,3280990.28 635895.51,3280990.78 635895.51,3280990.78 635905.19,3280991.14 635905.19,3280991.14 635918.09,3280991.70 635918.09,3280991.70 635927.43,3280992.08 635927.43,3280992.08 635941.86,3280992.75 635941.86,3280992.75 635956.14,3280993.48">
        <lane index="0" width="3.66" />
    </edge>
    <edge id="346.0" from="node_349_end" to="j_merge_start_24" numLanes="2" speed="13.89" type="town" shape="636655.19,3281178.91 636661.49,3281180.17 636661.49,3281180.17 636677.99,3281183.47 636677.99,3281183.47 636693.40,3281186.57 636693.40,3281186.57 636704.75,3281188.84 636704.75,3281188.84 636716.29,3281191.14 636716.29,3281191.14 636723.09,3281192.48">
        <lane index="0" width="3.66" />
        <lane index="1" width="3.66" />
    </edge>
    <edge id="merge_zone_23" from="j_merge_start_23" to="j_merge_end_23" numLanes="3" speed="13.89" name="Merge zone 23" type="highway_merge" shape="630178.56,3280843.28 630178.56,3280843.28 630193.67,3280842.15 630193.67,3280842.15 630218.03,3280840.39 630218.03,3280840.39 630266.36,3280837.01 630266.36,3280837.01 630286.76,3280835.55 630286.76,3280835.55 630308.78,3280834.06">
        <lane index="0" width="3.66" />
        <lane index="1" width="3.66" />
        <lane index="2" width="3.66" />
    </edge>
</edges>