<?xml version="1.0" encoding="UTF-8"?>

<!-- generated on 2025-10-19 17:33:42 by Eclipse SUMO netconvert Version 1.23.1
<netconvertConfiguration xmlns:xsi="http://www.w3.org/2001/XMLSchema-instance" xsi:noNamespaceSchemaLocation="http://sumo.dlr.de/xsd/netconvertConfiguration.xsd">

    <input>
        <node-files value="/home/sdai/harry/TeraSim/jupiter/wb/jupiter_wb_tiles/tile_0093/tile_0093.nod.xml"/>
        <edge-files value="/home/sdai/harry/TeraSim/jupiter/wb/jupiter_wb_tiles/tile_0093/tile_0093.edg.xml"/>
    </input>

    <output>
        <output-file value="/home/sdai/harry/TeraSim/jupiter/wb/jupiter_wb_tiles/tile_0093/tile_0093.net.xml"/>
        <output.street-names value="true"/>
        <output.original-names value="true"/>
    </output>

    <processing>
        <geometry.remove value="false"/>
        <geometry.min-dist value="0.5"/>
        <edges.join value="false"/>
    </processing>

    <junctions>
        <no-internal-links value="false"/>
        <no-turnarounds value="true"/>
        <junctions.join value="true"/>
        <junctions.join-dist value="10"/>
        <junctions.corner-detail value="5"/>
        <junctions.internal-link-detail value="5"/>
        <junctions.limit-turn-speed value="5.5"/>
        <rectangular-lane-cut value="true"/>
        <check-lane-foes.all value="true"/>
    </junctions>

</netconvertConfiguration>
-->

<net version="1.20" junctionCornerDetail="5" junctionLinkDetail="5" rectangularLaneCut="true" limitTurnSpeed="5.50" checkLaneFoesAll="1" xmlns:xsi="http://www.w3.org/2001/XMLSchema-instance" xsi:noNamespaceSchemaLocation="http://sumo.dlr.de/xsd/net_file.xsd">

    <location netOffset="-684121.90,-3286287.74" convBoundary="0.00,0.00,8752.30,638.98" origBoundary="0.00,0.00,692947.50,3286926.72" projParameter="!"/>

    <edge id=":j_merge_end_25_0" function="internal">
        <lane id=":j_merge_end_25_0_0" index="0" speed="13.89" length="40.84" width="3.66" shape="8620.23,11.78 8579.65,15.72"/>
        <lane id=":j_merge_end_25_0_1" index="1" speed="13.89" length="40.84" width="3.66" shape="8619.95,8.13 8579.23,12.08"/>
    </edge>

    <edge id="337.0" from="j_merge_end_25" to="junction_89" priority="-1" type="town" shape="8579.02,10.26 8559.39,12.52 8538.29,15.23 8517.98,18.10 8500.99,20.59 8478.43,24.22 8460.45,27.36 8443.01,30.48 8421.51,34.39 8401.11,38.03 8378.93,42.00 8355.38,46.25 8336.06,49.71 8314.42,53.57 8294.16,57.24 8270.30,61.54 8247.39,65.67 8227.13,69.35 8205.62,73.18 8187.10,76.50 8165.19,80.43 8140.47,84.85 8125.96,87.47 8111.23,90.15 8097.09,92.70 8080.90,95.60 8058.51,99.66 8040.50,102.90 8021.38,106.39 8002.74,109.74 7983.86,113.17 7968.62,115.93 7946.19,119.97 7926.41,123.50 7908.62,126.71 7889.79,130.12 7876.17,132.60 7859.70,135.57 7844.78,138.27 7831.11,140.75 7813.20,143.92 7797.01,146.86 7779.62,150.02 7762.56,153.10 7746.60,156.00 7730.99,158.82 7709.90,162.58 7687.58,166.56 7662.68,171.04 7632.65,176.43 7606.79,181.15 7575.20,186.88 7533.68,194.45 7493.59,201.65 7461.31,207.46 7430.72,213.01 7401.67,218.24 7371.54,223.74 7348.70,227.85 7320.64,232.84 7293.15,237.78 7267.22,242.45 7240.05,247.29 7211.62,252.50 7186.93,256.98 7158.00,262.23 7132.23,266.80 7110.30,270.76 7078.96,276.41 7046.77,282.19 7005.66,289.63 6968.40,296.39 6945.15,300.59 6923.77,304.45 6904.41,307.93 6883.29,311.71 6860.06,315.88 6838.81,319.71 6816.54,323.78 6795.10,327.60 6778.75,330.53 6755.47,334.73 6715.05,342.08 6669.57,350.25 6621.41,359.04 6587.09,365.20 6551.86,371.52 6523.93,376.54 6499.60,380.90 6462.69,387.58 6420.37,395.28 6379.74,402.59 6338.40,410.05 6265.89,423.08 6243.41,427.08 6221.66,431.01 6201.19,434.73 6176.11,439.30 6142.42,445.32 6119.25,449.44 6095.69,453.64 6076.95,457.05 6052.69,461.40 6027.08,465.98 6003.11,470.29 5973.57,475.56 5948.20,480.16 5925.30,484.26 5885.29,491.50 5845.82,498.62 5818.25,503.61 5789.48,508.77 5766.21,512.97 5740.93,517.45 5703.56,523.98 5667.94,530.21 5638.36,535.47 5618.06,539.12 5582.86,545.22 5545.32,551.44 5517.30,555.88 5493.23,559.51 5466.35,563.53 5440.91,567.24 5413.70,571.15 5380.69,575.78 5345.34,580.38 5319.70,583.68 5296.11,586.59 5286.06,587.85 5263.60,590.51 5245.41,592.63 5223.19,595.16 5207.39,596.88 5189.23,598.82 5169.06,600.95 5152.70,602.62 5132.86,604.60 5112.65,606.63 5094.58,608.41 5065.80,611.06 5040.16,613.35 5020.68,615.01 4999.04,616.77 4979.58,618.30 4961.34,619.67 4948.24,620.62 4931.81,621.81 4917.86,622.79 4901.49,623.84 4886.19,624.84 4867.83,625.92 4849.90,626.94 4834.04,627.80 4819.02,628.59 4801.62,629.50 4786.45,630.26 4769.19,631.06 4753.41,631.77 4744.67,632.20 4731.99,632.75 4720.59,633.24 4708.92,633.70 4694.33,634.29 4679.76,634.81 4664.90,635.33 4650.39,635.82 4636.20,636.23 4619.70,636.69 4601.61,637.12 4583.27,637.51 4563.96,637.85 4539.06,638.20 4527.43,638.33 4514.73,638.46 4495.56,638.65 4476.78,638.82 4461.07,638.95 4445.45,638.98 4433.66,638.96 4420.70,638.95 4408.62,638.90 4395.97,638.82 4381.85,638.69 4370.37,638.55 4358.45,638.40 4347.58,638.23 4332.51,638.00 4311.31,637.63 4296.51,637.36 4278.05,636.96 4259.88,636.53 4239.36,636.02 4221.34,635.48 4202.64,634.80 4189.95,634.30 4174.73,633.69 4155.46,632.93 4140.43,632.32 4124.24,631.62 4106.30,630.85 4075.74,629.52 4048.84,628.29 4022.56,627.09 3994.96,625.68 3962.28,624.11 3938.69,622.98 3907.70,621.47 3887.07,620.51 3866.18,619.47 3828.83,617.70 3800.39,616.32 3767.24,614.79 3736.91,613.27 3710.41,612.05 3684.43,610.81 3664.94,609.90 3636.83,608.60 3609.25,607.29 3592.72,606.49 3564.68,605.13 3543.24,604.08 3514.96,602.69 3492.67,601.61 3475.54,600.79 3456.12,599.87 3436.68,598.93 3413.36,597.79 3393.74,596.91 3371.98,595.91 3350.37,594.84 3315.46,593.21 3281.04,591.55 3255.64,590.37 3230.61,589.12 3207.16,588.03 3189.54,587.17 3175.82,586.51 3162.60,585.90 3143.22,584.98 3126.20,584.17 3101.35,582.99 3074.03,581.75 3049.52,580.55 3026.28,579.48 2995.53,578.01 2984.76,577.51 2969.08,576.78 2955.59,576.13 2941.28,575.46 2928.29,574.82 2909.22,573.92 2892.62,573.14 2875.36,572.30 2858.47,571.50 2838.27,570.55 2822.77,569.82 2809.44,569.15 2789.66,568.22 2772.10,567.37 2754.06,566.50 2730.69,565.39 2708.27,564.32 2683.46,563.09 2659.75,561.98 2637.50,560.94 2600.20,559.16 2573.94,557.91 2553.28,556.94 2539.89,556.27 2525.12,555.57 2510.07,554.83 2491.63,553.96 2474.55,553.10 2457.44,552.28 2440.69,551.51 2425.58,550.81 2404.55,549.81 2385.28,548.86 2359.49,547.61 2340.98,546.75 2327.28,546.09 2309.76,545.23 2296.80,544.63 2280.50,543.87 2260.03,542.88 2241.23,541.97 2222.16,541.09 2202.62,540.15 2187.42,539.42 2168.95,538.56 2152.70,537.80 2133.34,536.86 2117.61,536.09 2095.62,535.06 2078.51,534.28 2057.29,533.25 2032.52,532.06 2009.02,530.91 1984.56,529.71 1968.03,528.91 1945.92,527.88 1916.83,526.52 1891.44,525.36 1861.83,523.95 1828.55,522.38 1802.26,521.17 1775.57,519.84 1748.62,518.54 1726.18,517.45 1701.07,516.24 1680.23,515.25 1653.74,514.00 1634.45,513.06 1607.70,511.74 1584.90,510.67 1563.22,509.66 1537.64,508.38 1504.42,506.78 1478.75,505.56 1465.45,504.92 1439.19,503.70 1413.99,502.53 1393.39,501.54 1371.95,500.52 1347.95,499.34 1320.96,498.14 1300.15,497.16 1275.33,495.92 1257.81,495.08 1236.79,494.04 1215.27,493.01 1190.06,491.79 1164.12,490.59 1139.09,489.40 1110.22,487.99 1091.86,487.11 1076.88,486.43 1059.48,485.60 1040.48,484.72 1022.40,483.89 1005.29,483.06 985.61,482.17 973.24,481.58 954.51,480.70 934.79,479.74 917.27,478.91 899.90,478.12 882.70,477.33 863.96,476.54 855.47,476.15 844.28,475.65 829.63,475.02 815.39,474.43 802.19,473.82 787.04,473.16 756.14,471.83 729.46,470.78 702.23,469.64 683.34,468.87 664.12,468.12 643.17,467.29 619.98,466.32 599.53,465.47 576.42,464.48 556.27,463.65 530.38,462.60 511.18,461.81 491.70,461.01 470.18,460.09 447.69,459.22 424.94,458.25 403.13,457.34 371.92,456.00 349.12,455.00 324.11,453.92 298.00,452.84 271.65,451.72 246.15,450.70 226.01,449.85 206.56,449.08 183.31,448.12 150.24,446.74 118.27,445.42 89.38,444.17 65.73,443.13 35.35,441.83 0.00,440.38">
        <lane id="337.0_0" index="0" disallow="all" speed="13.89" length="8637.04" width="3.66" shape="8580.07,19.35 8560.50,21.61 8539.52,24.30 8519.29,27.16 8502.39,29.64 8479.95,33.25 8462.05,36.37 8444.64,39.49 8423.14,43.40 8402.72,47.04 8380.55,51.01 8357.00,55.26 8337.67,58.72 8316.04,62.58 8295.79,66.25 8271.93,70.55 8249.02,74.68 8228.75,78.36 8207.23,82.19 8188.72,85.51 8166.81,89.44 8142.09,93.86 8127.60,96.48 8112.87,99.16 8098.71,101.71 8082.53,104.61 8060.14,108.67 8042.14,111.91 8023.02,115.40 8004.37,118.75 7985.50,122.18 7970.25,124.94 7947.81,128.98 7928.03,132.51 7910.25,135.72 7891.43,139.13 7877.81,141.61 7861.33,144.58 7846.42,147.28 7832.73,149.76 7814.82,152.93 7798.65,155.87 7781.26,159.03 7764.20,162.11 7748.24,165.01 7732.61,167.83 7711.51,171.59 7689.20,175.57 7664.30,180.05 7634.28,185.44 7608.43,190.16 7576.84,195.89 7535.31,203.46 7495.21,210.66 7462.94,216.47 7432.35,222.02 7403.31,227.25 7373.18,232.75 7350.32,236.86 7322.26,241.85 7294.77,246.79 7268.84,251.46 7241.68,256.30 7213.27,261.51 7188.57,265.99 7159.62,271.24 7133.85,275.81 7111.93,279.77 7080.59,285.42 7048.40,291.20 7007.30,298.64 6970.04,305.40 6946.78,309.60 6925.40,313.46 6906.03,316.94 6884.91,320.72 6861.68,324.89 6840.45,328.72 6818.17,332.79 6796.71,336.61 6780.38,339.54 6757.11,343.74 6716.68,351.09 6671.21,359.26 6623.04,368.05 6588.71,374.21 6553.48,380.53 6525.55,385.55 6501.23,389.91 6464.33,396.59 6422.00,404.29 6381.37,411.60 6340.03,419.06 6267.51,432.09 6245.03,436.09 6223.30,440.02 6202.83,443.74 6177.74,448.31 6144.03,454.33 6120.86,458.45 6097.32,462.65 6078.58,466.06 6054.31,470.41 6028.70,474.99 6004.73,479.30 5975.19,484.57 5949.83,489.17 5926.93,493.27 5886.92,500.51 5847.45,507.63 5819.88,512.62 5791.10,517.78 5767.83,521.98 5742.52,526.47 5705.14,533.00 5669.53,539.23 5639.97,544.48 5619.66,548.14 5584.39,554.25 5546.79,560.48 5518.70,564.93 5494.59,568.56 5467.69,572.59 5442.23,576.30 5414.99,580.21 5381.92,584.85 5346.52,589.46 5320.85,592.76 5297.24,595.68 5287.17,596.94 5264.67,599.60 5246.46,601.72 5224.21,604.26 5208.38,605.98 5190.20,607.92 5170.01,610.06 5153.62,611.73 5133.78,613.71 5113.56,615.74 5095.45,617.52 5066.63,620.18 5040.96,622.47 5021.44,624.13 4999.78,625.90 4980.29,627.43 4962.02,628.80 4948.91,629.75 4932.47,630.94 4918.48,631.92 4902.09,632.98 4886.76,633.98 4868.36,635.06 4850.41,636.08 4834.53,636.94 4819.50,637.73 4802.09,638.64 4786.89,639.40 4769.61,640.20 4753.84,640.91 4745.09,641.34 4732.39,641.90 4720.97,642.39 4709.29,642.85 4694.68,643.44 4680.09,643.96 4665.22,644.48 4650.68,644.97 4636.46,645.38 4619.94,645.84 4601.82,646.27 4583.45,646.66 4564.11,647.00 4539.19,647.35 4527.53,647.48 4514.83,647.61 4495.65,647.80 4476.86,647.97 4461.12,648.10 4445.46,648.13 4433.65,648.11 4420.68,648.10 4408.58,648.05 4395.90,647.97 4381.76,647.84 4370.26,647.70 4358.33,647.55 4347.44,647.38 4332.36,647.15 4311.15,646.78 4296.33,646.51 4277.85,646.11 4259.66,645.68 4239.12,645.17 4221.04,644.63 4202.30,643.95 4189.59,643.45 4174.37,642.84 4155.10,642.08 4140.05,641.47 4123.85,640.77 4105.91,640.00 4075.34,638.67 4048.43,637.43 4022.12,636.23 3994.51,634.82 3961.85,633.25 3938.25,632.12 3907.27,630.61 3886.63,629.65 3865.74,628.61 3828.40,626.84 3799.96,625.46 3766.81,623.93 3736.48,622.41 3709.99,621.19 3684.00,619.95 3664.52,619.04 3636.41,617.74 3608.82,616.43 3592.28,615.63 3564.24,614.27 3542.80,613.22 3514.52,611.83 3492.23,610.75 3475.11,609.93 3455.69,609.01 3436.24,608.07 3412.93,606.93 3393.33,606.06 3371.55,605.05 3349.94,603.98 3315.03,602.35 3280.61,600.69 3255.20,599.51 3230.17,598.26 3206.73,597.17 3189.10,596.31 3175.39,595.65 3162.18,595.04 3142.79,594.12 3125.77,593.31 3100.93,592.13 3073.60,590.89 3049.09,589.69 3025.85,588.62 2995.10,587.15 2984.34,586.65 2968.65,585.92 2955.16,585.27 2940.85,584.60 2927.86,583.96 2908.79,583.06 2892.19,582.28 2874.93,581.44 2858.04,580.64 2837.84,579.69 2822.33,578.96 2809.00,578.29 2789.23,577.36 2771.66,576.51 2753.63,575.64 2730.26,574.53 2707.83,573.46 2683.02,572.23 2659.33,571.12 2637.07,570.08 2599.77,568.30 2573.51,567.05 2552.84,566.08 2539.45,565.41 2524.68,564.71 2509.64,563.97 2491.19,563.10 2474.11,562.24 2457.02,561.42 2440.27,560.65 2425.16,559.95 2404.11,558.95 2384.84,558.00 2359.06,556.75 2340.55,555.89 2326.84,555.23 2309.33,554.37 2296.38,553.77 2280.07,553.01 2259.59,552.02 2240.80,551.11 2221.73,550.23 2202.19,549.29 2186.99,548.56 2168.53,547.70 2152.27,546.94 2132.90,546.00 2117.18,545.23 2095.20,544.20 2078.08,543.42 2056.85,542.39 2032.08,541.20 2008.58,540.05 1984.12,538.85 1967.60,538.05 1945.50,537.02 1916.41,535.66 1891.02,534.50 1861.40,533.09 1828.13,531.52 1801.83,530.31 1775.13,528.98 1748.18,527.68 1725.74,526.59 1700.64,525.38 1679.80,524.39 1653.31,523.14 1634.01,522.20 1607.26,520.88 1584.48,519.81 1562.78,518.80 1537.20,517.52 1503.99,515.92 1478.32,514.70 1465.03,514.06 1438.77,512.84 1413.56,511.67 1392.96,510.68 1371.51,509.66 1347.53,508.48 1320.55,507.29 1299.71,506.30 1274.89,505.06 1257.37,504.22 1236.35,503.18 1214.83,502.15 1189.63,500.93 1163.70,499.73 1138.65,498.54 1109.78,497.13 1091.44,496.25 1076.46,495.57 1059.06,494.74 1040.06,493.86 1021.97,493.03 1004.87,492.20 985.19,491.31 972.81,490.72 954.08,489.84 934.36,488.88 916.85,488.05 899.49,487.26 882.30,486.48 863.57,485.69 855.06,485.30 843.89,484.80 829.25,484.17 815.00,483.58 801.79,482.97 786.65,482.31 755.77,480.98 729.09,479.93 701.86,478.79 682.98,478.02 663.77,477.27 642.80,476.44 619.60,475.47 599.15,474.62 576.04,473.63 555.90,472.80 530.01,471.75 510.81,470.96 491.32,470.16 469.81,469.24 447.32,468.37 424.56,467.40 402.75,466.49 371.53,465.15 348.73,464.15 323.73,463.07 297.62,461.99 271.28,460.87 245.78,459.85 225.64,459.00 206.19,458.23 182.94,457.27 149.87,455.89 117.89,454.57 88.99,453.32 65.34,452.28 34.97,450.98 -0.37,449.53" type="shoulder"/>
        <lane id="337.0_1" index="1" speed="13.89" length="8637.04" width="3.66" shape="8579.65,15.72 8560.06,17.97 8539.03,20.68 8518.77,23.54 8501.83,26.02 8479.34,29.64 8461.41,32.77 8443.99,35.89 8422.49,39.80 8402.08,43.44 8379.91,47.41 8356.36,51.66 8337.03,55.12 8315.40,58.98 8295.14,62.65 8271.28,66.95 8248.37,71.08 8228.11,74.76 8206.59,78.59 8188.07,81.91 8166.16,85.84 8141.44,90.26 8126.94,92.88 8112.21,95.56 8098.07,98.11 8081.88,101.01 8059.49,105.07 8041.48,108.31 8022.36,111.80 8003.72,115.15 7984.84,118.58 7969.60,121.34 7947.16,125.38 7927.38,128.91 7909.60,132.12 7890.78,135.53 7877.15,138.01 7860.68,140.98 7845.76,143.68 7832.08,146.16 7814.17,149.33 7798.00,152.27 7780.60,155.43 7763.54,158.51 7747.58,161.41 7731.96,164.23 7710.87,167.99 7688.55,171.97 7663.66,176.45 7633.63,181.84 7607.78,186.56 7576.19,192.29 7534.66,199.86 7494.57,207.06 7462.29,212.87 7431.70,218.42 7402.65,223.65 7372.52,229.15 7349.67,233.26 7321.61,238.25 7294.13,243.19 7268.19,247.86 7241.03,252.70 7212.61,257.91 7187.92,262.39 7158.97,267.64 7133.20,272.21 7111.28,276.17 7079.94,281.82 7047.75,287.60 7006.64,295.04 6969.38,301.80 6946.13,306.00 6924.75,309.86 6905.38,313.34 6884.26,317.12 6861.04,321.29 6839.80,325.12 6817.52,329.19 6796.07,333.01 6779.73,335.94 6756.45,340.14 6716.03,347.49 6670.55,355.66 6622.39,364.45 6588.06,370.61 6552.84,376.93 6524.90,381.95 6500.58,386.31 6463.68,392.99 6421.35,400.69 6380.72,408.00 6339.38,415.46 6266.86,428.49 6244.38,432.49 6222.64,436.42 6202.18,440.14 6177.09,444.71 6143.39,450.73 6120.22,454.85 6096.67,459.05 6077.93,462.46 6053.66,466.81 6028.05,471.39 6004.08,475.70 5974.55,480.97 5949.18,485.57 5926.28,489.67 5886.27,496.91 5846.80,504.03 5819.23,509.02 5790.46,514.18 5767.18,518.38 5741.89,522.86 5704.51,529.39 5668.90,535.62 5639.33,540.88 5619.02,544.53 5583.78,550.64 5546.20,556.86 5518.14,561.31 5494.05,564.94 5467.16,568.97 5441.70,572.68 5414.48,576.59 5381.43,581.23 5346.05,585.83 5320.39,589.13 5296.79,592.04 5286.73,593.30 5264.25,595.97 5246.04,598.09 5223.80,600.62 5207.98,602.34 5189.81,604.28 5169.63,606.42 5153.26,608.09 5133.41,610.07 5113.20,612.10 5095.11,613.88 5066.30,616.53 5040.64,618.82 5021.14,620.49 4999.48,622.25 4980.01,623.78 4961.75,625.15 4948.64,626.10 4932.21,627.29 4918.23,628.27 4901.85,629.32 4886.54,630.32 4868.15,631.41 4850.21,632.43 4834.34,633.29 4819.31,634.08 4801.91,634.99 4786.72,635.75 4769.45,636.55 4753.67,637.26 4744.93,637.69 4732.23,638.24 4720.82,638.73 4709.14,639.19 4694.54,639.78 4679.96,640.30 4665.09,640.82 4650.57,641.31 4636.36,641.72 4619.85,642.18 4601.74,642.61 4583.38,643.00 4564.05,643.34 4539.14,643.69 4527.49,643.82 4514.79,643.95 4495.62,644.14 4476.83,644.31 4461.10,644.44 4445.46,644.47 4433.66,644.45 4420.69,644.44 4408.60,644.39 4395.93,644.31 4381.80,644.18 4370.31,644.04 4358.38,643.89 4347.50,643.72 4332.42,643.49 4311.22,643.12 4296.40,642.85 4277.93,642.45 4259.75,642.02 4239.22,641.51 4221.16,640.97 4202.44,640.29 4189.74,639.79 4174.52,639.18 4155.25,638.42 4140.20,637.81 4124.01,637.11 4106.07,636.34 4075.50,635.01 4048.59,633.78 4022.30,632.58 3994.69,631.17 3962.02,629.60 3938.43,628.47 3907.44,626.96 3886.81,626.00 3865.92,624.96 3828.57,623.19 3800.14,621.81 3766.98,620.28 3736.65,618.76 3710.16,617.54 3684.18,616.30 3664.69,615.39 3636.58,614.09 3608.99,612.78 3592.46,611.98 3564.42,610.62 3542.98,609.57 3514.70,608.18 3492.41,607.10 3475.28,606.28 3455.86,605.36 3436.42,604.42 3413.11,603.28 3393.50,602.40 3371.72,601.40 3350.11,600.33 3315.20,598.70 3280.78,597.04 3255.38,595.86 3230.35,594.61 3206.90,593.52 3189.28,592.66 3175.57,592.00 3162.35,591.39 3142.96,590.47 3125.94,589.66 3101.10,588.48 3073.78,587.24 3049.26,586.04 3026.03,584.97 2995.27,583.50 2984.51,583.00 2968.83,582.27 2955.33,581.62 2941.02,580.95 2928.03,580.31 2908.97,579.41 2892.36,578.63 2875.10,577.79 2858.22,576.99 2838.02,576.04 2822.51,575.31 2809.18,574.64 2789.40,573.71 2771.84,572.86 2753.80,571.99 2730.43,570.88 2708.01,569.81 2683.20,568.58 2659.50,567.47 2637.25,566.43 2599.94,564.65 2573.69,563.40 2553.02,562.43 2539.63,561.76 2524.86,561.06 2509.81,560.32 2491.37,559.45 2474.29,558.59 2457.19,557.77 2440.44,557.00 2425.33,556.30 2404.29,555.30 2385.02,554.35 2359.23,553.10 2340.73,552.24 2327.02,551.58 2309.50,550.72 2296.55,550.12 2280.24,549.36 2259.77,548.37 2240.98,547.46 2221.91,546.58 2202.36,545.64 2187.17,544.91 2168.70,544.05 2152.44,543.29 2133.08,542.35 2117.35,541.58 2095.37,540.55 2078.26,539.77 2057.03,538.74 2032.26,537.55 2008.76,536.40 1984.30,535.20 1967.78,534.40 1945.67,533.37 1916.58,532.01 1891.19,530.85 1861.58,529.44 1828.30,527.87 1802.00,526.66 1775.31,525.33 1748.36,524.03 1725.92,522.94 1700.81,521.73 1679.98,520.74 1653.48,519.49 1634.19,518.55 1607.44,517.23 1584.65,516.16 1562.96,515.15 1537.38,513.87 1504.16,512.27 1478.49,511.05 1465.20,510.41 1438.94,509.19 1413.74,508.02 1393.13,507.03 1371.69,506.01 1347.70,504.83 1320.71,503.63 1299.89,502.65 1275.07,501.41 1257.55,500.57 1236.53,499.53 1215.01,498.50 1189.81,497.28 1163.87,496.08 1138.83,494.89 1109.96,493.48 1091.61,492.60 1076.63,491.92 1059.23,491.09 1040.23,490.21 1022.15,489.38 1005.04,488.55 985.36,487.66 972.99,487.07 954.25,486.19 934.53,485.23 917.02,484.40 899.65,483.61 882.46,482.82 863.73,482.03 855.23,481.64 844.05,481.14 829.40,480.51 815.16,479.92 801.95,479.31 786.81,478.65 755.92,477.32 729.24,476.27 702.01,475.13 683.13,474.36 663.91,473.61 642.95,472.78 619.76,471.81 599.30,470.96 576.19,469.97 556.05,469.14 530.16,468.09 510.96,467.30 491.47,466.50 469.96,465.58 447.47,464.71 424.71,463.74 402.90,462.83 371.69,461.49 348.89,460.49 323.88,459.41 297.77,458.33 271.43,457.21 245.93,456.19 225.79,455.34 206.34,454.57 183.09,453.61 150.02,452.23 118.04,450.91 89.15,449.66 65.50,448.62 35.13,447.32 -0.23,445.87"/>
        <lane id="337.0_2" index="2" speed="13.89" length="8637.04" width="3.66" shape="8579.23,12.08 8559.62,14.34 8538.54,17.05 8518.25,19.92 8501.27,22.40 8478.74,26.03 8460.77,29.17 8443.34,32.29 8421.84,36.20 8401.44,39.84 8379.26,43.81 8355.71,48.06 8336.39,51.52 8314.75,55.38 8294.49,59.05 8270.63,63.35 8247.72,67.48 8227.46,71.16 8205.95,74.99 8187.43,78.31 8165.52,82.24 8140.80,86.66 8126.29,89.28 8111.56,91.96 8097.42,94.51 8081.23,97.41 8058.84,101.47 8040.83,104.71 8021.71,108.20 8003.07,111.55 7984.19,114.98 7968.95,117.74 7946.52,121.78 7926.74,125.31 7908.95,128.52 7890.12,131.93 7876.50,134.41 7860.03,137.38 7845.11,140.08 7831.44,142.56 7813.53,145.73 7797.34,148.67 7779.95,151.83 7762.89,154.91 7746.93,157.81 7731.32,160.63 7710.23,164.39 7687.91,168.37 7663.01,172.85 7632.98,178.24 7607.12,182.95 7575.53,188.68 7534.01,196.26 7493.92,203.46 7461.64,209.27 7431.05,214.82 7402.00,220.05 7371.87,225.55 7349.03,229.66 7320.97,234.65 7293.48,239.59 7267.55,244.26 7240.38,249.10 7211.95,254.30 7187.26,258.79 7158.33,264.04 7132.56,268.61 7110.63,272.57 7079.29,278.22 7047.10,284.00 7005.99,291.44 6968.73,298.20 6945.48,302.40 6924.10,306.26 6904.74,309.74 6883.62,313.52 6860.39,317.69 6839.14,321.52 6816.87,325.59 6795.43,329.41 6779.08,332.34 6755.80,336.54 6715.38,343.89 6669.90,352.06 6621.74,360.85 6587.42,367.01 6552.19,373.33 6524.26,378.35 6499.93,382.71 6463.02,389.39 6420.70,397.09 6380.07,404.40 6338.73,411.86 6266.22,424.89 6243.74,428.89 6221.99,432.82 6201.52,436.53 6176.44,441.11 6142.75,447.13 6119.58,451.25 6096.02,455.45 6077.28,458.86 6053.02,463.21 6027.41,467.79 6003.44,472.10 5973.90,477.37 5948.53,481.97 5925.63,486.07 5885.62,493.31 5846.15,500.43 5818.58,505.42 5789.81,510.58 5766.54,514.78 5741.25,519.26 5703.88,525.79 5668.26,532.02 5638.69,537.28 5618.38,540.93 5583.17,547.03 5545.62,553.25 5517.58,557.69 5493.51,561.32 5466.62,565.34 5441.18,569.06 5413.96,572.97 5380.94,577.60 5345.58,582.20 5319.93,585.50 5296.34,588.41 5286.29,589.67 5263.82,592.33 5245.62,594.45 5223.40,596.98 5207.59,598.70 5189.43,600.64 5169.25,602.77 5152.89,604.45 5133.05,606.43 5112.84,608.46 5094.76,610.24 5065.97,612.89 5040.32,615.18 5020.84,616.84 4999.19,618.60 4979.73,620.13 4961.48,621.50 4948.38,622.45 4931.95,623.64 4917.99,624.62 4901.61,625.67 4886.31,626.67 4867.94,627.75 4850.01,628.77 4834.14,629.63 4819.12,630.42 4801.72,631.33 4786.54,632.09 4769.28,632.89 4753.50,633.60 4744.76,634.03 4732.07,634.58 4720.67,635.07 4709.00,635.53 4694.40,636.12 4679.83,636.64 4664.97,637.16 4650.45,637.65 4636.26,638.06 4619.75,638.52 4601.66,638.95 4583.31,639.34 4563.99,639.68 4539.09,640.03 4527.45,640.16 4514.75,640.29 4495.58,640.48 4476.80,640.65 4461.08,640.78 4445.46,640.81 4433.66,640.79 4420.70,640.78 4408.62,640.73 4395.96,640.65 4381.84,640.52 4370.35,640.38 4358.43,640.23 4347.56,640.06 4332.48,639.83 4311.28,639.46 4296.48,639.19 4278.01,638.79 4259.84,638.36 4239.32,637.85 4221.28,637.31 4202.58,636.63 4189.88,636.13 4174.66,635.52 4155.39,634.76 4140.36,634.15 4124.17,633.45 4106.23,632.68 4075.66,631.35 4048.76,630.12 4022.48,628.92 3994.87,627.51 3962.20,625.94 3938.61,624.81 3907.62,623.30 3886.99,622.34 3866.10,621.30 3828.75,619.53 3800.31,618.15 3767.16,616.62 3736.83,615.10 3710.33,613.88 3684.35,612.64 3664.86,611.73 3636.75,610.43 3609.17,609.12 3592.64,608.32 3564.60,606.96 3543.16,605.91 3514.88,604.52 3492.59,603.44 3475.46,602.62 3456.04,601.70 3436.60,600.76 3413.28,599.62 3393.66,598.74 3371.90,597.74 3350.29,596.67 3315.38,595.04 3280.96,593.38 3255.56,592.20 3230.53,590.95 3207.08,589.86 3189.46,589.00 3175.74,588.34 3162.52,587.73 3143.14,586.81 3126.12,586.00 3101.27,584.82 3073.95,583.58 3049.44,582.38 3026.20,581.31 2995.45,579.84 2984.68,579.34 2969.00,578.61 2955.51,577.96 2941.20,577.29 2928.21,576.65 2909.14,575.75 2892.54,574.97 2875.28,574.13 2858.39,573.33 2838.19,572.38 2822.69,571.65 2809.36,570.98 2789.58,570.05 2772.02,569.20 2753.98,568.33 2730.61,567.22 2708.19,566.15 2683.38,564.92 2659.67,563.81 2637.42,562.77 2600.12,560.99 2573.86,559.74 2553.20,558.77 2539.81,558.10 2525.04,557.40 2509.99,556.66 2491.55,555.79 2474.47,554.93 2457.36,554.11 2440.61,553.34 2425.50,552.64 2404.47,551.64 2385.20,550.69 2359.41,549.44 2340.90,548.58 2327.20,547.92 2309.68,547.06 2296.72,546.46 2280.42,545.70 2259.95,544.71 2241.15,543.80 2222.08,542.92 2202.54,541.98 2187.34,541.25 2168.87,540.39 2152.62,539.63 2133.26,538.69 2117.53,537.92 2095.54,536.89 2078.43,536.11 2057.21,535.08 2032.44,533.89 2008.94,532.74 1984.48,531.54 1967.95,530.74 1945.84,529.71 1916.75,528.35 1891.36,527.19 1861.75,525.78 1828.47,524.21 1802.18,523.00 1775.49,521.67 1748.54,520.37 1726.10,519.28 1700.99,518.07 1680.15,517.08 1653.66,515.83 1634.37,514.89 1607.62,513.57 1584.82,512.50 1563.14,511.49 1537.56,510.21 1504.34,508.61 1478.67,507.39 1465.37,506.75 1439.11,505.53 1413.91,504.36 1393.31,503.37 1371.87,502.35 1347.87,501.17 1320.88,499.97 1300.07,498.99 1275.25,497.75 1257.73,496.91 1236.71,495.87 1215.19,494.84 1189.98,493.62 1164.04,492.42 1139.01,491.23 1110.14,489.82 1091.78,488.94 1076.80,488.26 1059.40,487.43 1040.40,486.55 1022.32,485.72 1005.21,484.89 985.53,484.00 973.16,483.41 954.43,482.53 934.71,481.57 917.19,480.74 899.82,479.95 882.62,479.16 863.89,478.37 855.39,477.98 844.21,477.48 829.56,476.85 815.32,476.26 802.11,475.65 786.97,474.99 756.07,473.66 729.39,472.61 702.16,471.47 683.27,470.70 664.05,469.95 643.10,469.12 619.91,468.15 599.46,467.30 576.35,466.31 556.20,465.48 530.31,464.43 511.11,463.64 491.63,462.84 470.11,461.92 447.62,461.05 424.87,460.08 403.06,459.17 371.85,457.83 349.05,456.83 324.04,455.75 297.93,454.67 271.58,453.55 246.08,452.53 225.94,451.68 206.49,450.91 183.24,449.95 150.17,448.57 118.20,447.25 89.31,446.00 65.66,444.96 35.28,443.66 -0.08,442.21"/>
    </edge>
    <edge id="merge_zone_25" from="j_merge_start_25" to="j_merge_end_25" name="Merge zone 25" priority="-1" type="highway_merge" shape="8690.31,1.81 8660.44,3.33 8639.98,4.73 8619.80,6.30">
        <lane id="merge_zone_25_0" index="0" speed="13.89" length="132.51" width="3.66" shape="8752.70,7.80 8660.99,12.47 8640.65,13.86 8620.51,15.43"/>
        <lane id="merge_zone_25_1" index="1" speed="13.89" length="132.51" width="3.66" shape="8752.51,4.15 8660.77,8.81 8640.39,10.21 8620.23,11.78"/>
        <lane id="merge_zone_25_2" index="2" speed="13.89" length="132.51" width="3.66" shape="8752.33,0.49 8660.55,5.16 8640.12,6.56 8619.95,8.13"/>
    </edge>

    <junction id="j_merge_end_25" type="priority" x="8579.02" y="10.27" incLanes="merge_zone_25_0 merge_zone_25_1 merge_zone_25_2" intLanes=":j_merge_end_25_0_0 :j_merge_end_25_0_1" shape="8620.66,17.25 8619.80,6.30 8579.02,10.26 8579.86,17.54 8588.51,16.82 8594.93,16.78 8600.23,17.11 8605.55,17.51 8611.98,17.66">
        <request index="0" response="00" foes="00" cont="0"/>
        <request index="1" response="00" foes="00" cont="0"/>
    </junction>
    <junction id="j_merge_start_25" type="dead_end" x="8752.30" y="0.00" incLanes="" intLanes="" shape="8752.23,-1.34 8752.79,9.63"/>
    <junction id="junction_89" type="dead_end" x="0.00" y="440.38" incLanes="337.0_0 337.0_1 337.0_2" intLanes="" shape="-0.30,447.70 -0.00,440.38"/>

    <connection from="merge_zone_25" to="337.0" fromLane="1" toLane="1" via=":j_merge_end_25_0_0" dir="s" state="M"/>
    <connection from="merge_zone_25" to="337.0" fromLane="2" toLane="2" via=":j_merge_end_25_0_1" dir="s" state="M"/>

    <connection from=":j_merge_end_25_0" to="337.0" fromLane="0" toLane="1" dir="s" state="M"/>
    <connection from=":j_merge_end_25_0" to="337.0" fromLane="1" toLane="2" dir="s" state="M"/>

</net>
