<?xml version='1.0' encoding='utf-8'?>
<connections>
    <connection from="374.0" to="merge_zone_25" fromLane="0" toLane="0" />
    <connection from="merge_zone_25" to="373.0" fromLane="0" toLane="2" dir="r" state="m" />
    <connection from="382.0" to="merge_zone_25" fromLane="1" toLane="2" />
    <connection from="382.0" to="merge_zone_25" fromLane="0" toLane="1" />
    <connection from="merge_zone_25" to="373.0" fromLane="2" toLane="2" />
    <connection from="merge_zone_25" to="373.0" fromLane="1" toLane="1" />
</connections>