<?xml version='1.0' encoding='utf-8'?>
<edges>
    <edge id="364.0" from="node_364_start" to="node_364_end" numLanes="3" speed="13.89" type="town" shape="644229.19,3280990.01 644260.45,3280988.27 644260.45,3280988.27 644344.45,3280983.54 644344.45,3280983.54 644410.67,3280979.71 644410.67,3280979.71 644478.22,3280975.89 644478.22,3280975.89 644512.34,3280974.01 644512.34,3280974.01 644583.47,3280970.05 644583.47,3280970.05 644642.90,3280966.76 644642.90,3280966.76 644668.05,3280965.41">
        <lane index="0" width="3.66" type="shoulder" disallow="all" />
        <lane index="1" width="3.66" />
        <lane index="2" width="3.66" />
    </edge>
    <edge id="368.0" from="node_368_start" to="node_368_end" numLanes="3" speed="13.89" type="town" shape="644779.44,3280959.18 644837.25,3280955.94 644837.25,3280955.94 644882.55,3280953.32 644882.55,3280953.32 644924.50,3280950.99 644924.50,3280950.99 644982.36,3280947.76">
        <lane index="0" width="3.66" type="shoulder" disallow="all" />
        <lane index="1" width="3.66" />
        <lane index="2" width="3.66" />
    </edge>
    <edge id="371.0" from="node_371_start" to="node_371_end" numLanes="1" speed="13.89" type="town" shape="644776.06,3280907.05 644879.15,3280921.81 644879.15,3280921.81 644904.00,3280925.05 644904.00,3280925.05 644925.88,3280927.77 644925.88,3280927.77 644946.11,3280929.90 644946.11,3280929.90 644968.17,3280931.95 644968.17,3280931.95 644982.12,3280933.20">
        <lane index="0" width="3.66" />
    </edge>
    <edge id="373.0" from="j_merge_end_25" to="node_373_end" numLanes="3" speed="13.89" type="town" shape="645314.05,3280929.03 645349.36,3280927.07 645349.36,3280927.07 645374.06,3280925.66 645374.06,3280925.66 645399.87,3280924.20 645399.87,3280924.20 645429.76,3280922.46 645429.76,3280922.46 645463.06,3280920.58 645463.06,3280920.58 645523.96,3280917.05 645523.96,3280917.05 645620.76,3280911.64 645620.76,3280911.64 645778.23,3280902.76 645778.23,3280902.76 645871.26,3280897.56 645871.26,3280897.56 645920.78,3280894.73 645920.78,3280894.73 645975.35,3280891.68 645975.35,3280891.68 646017.95,3280889.22 646017.95,3280889.22 646108.04,3280883.91 646108.04,3280883.91 646128.42,3280882.77 646128.42,3280882.77 646152.74,3280881.47 646152.74,3280881.47 646189.47,3280879.69 646189.47,3280879.69 646214.14,3280878.68 646214.14,3280878.68 646249.89,3280877.68 646249.89,3280877.68 646286.28,3280877.50 646286.28,3280877.50 646322.97,3280877.97 646322.97,3280877.97 646359.47,3280879.17 646359.47,3280879.17 646395.52,3280881.19 646395.52,3280881.19 646432.09,3280883.89 646432.09,3280883.89 646468.13,3280887.32 646468.13,3280887.32 646504.38,3280891.57 646504.38,3280891.57 646528.49,3280894.84 646528.49,3280894.84 646552.41,3280898.32 646552.41,3280898.32 646576.92,3280902.20 646576.92,3280902.20 646601.26,3280906.32 646601.26,3280906.32 646612.94,3280908.38 646612.94,3280908.38 646637.12,3280912.66 646637.12,3280912.66 646648.35,3280914.65">
        <lane index="0" width="3.66" type="shoulder" disallow="all" />
        <lane index="1" width="3.66" />
        <lane index="2" width="3.66" />
    </edge>
    <edge id="374.0" from="node_371_end" to="j_merge_start_25" numLanes="1" speed="13.89" type="town" shape="644982.12,3280933.20 644991.53,3280933.96 644991.53,3280933.96 645002.39,3280934.70 645002.39,3280934.70 645014.75,3280935.39 645014.75,3280935.39 645025.57,3280935.95 645025.57,3280935.95 645032.45,3280936.26 645032.45,3280936.26 645041.33,3280936.61 645041.33,3280936.61 645043.92,3280936.75">
        <lane index="0" width="3.66" />
    </edge>
    <edge id="375.0" from="node_375_start" to="node_368_start" numLanes="3" speed="13.89" type="town" shape="644721.87,3280962.37 644779.44,3280959.18">
        <lane index="0" width="3.66" type="shoulder" disallow="all" />
        <lane index="1" width="3.66" />
        <lane index="2" width="3.66" />
    </edge>
    <edge id="377.0" from="node_364_end" to="node_375_start" numLanes="3" speed="13.89" type="town" shape="644668.05,3280965.41 644721.87,3280962.37">
        <lane index="0" width="3.66" type="shoulder" disallow="all" />
        <lane index="1" width="3.66" />
        <lane index="2" width="3.66" />
    </edge>
    <edge id="379.0" from="node_379_start" to="node_379_end" numLanes="1" speed="13.89" type="town" shape="644228.04,3280975.08 644255.88,3280970.71 644255.88,3280970.71 644305.56,3280963.00 644305.56,3280963.00 644346.96,3280957.04 644346.96,3280957.04 644383.68,3280951.78 644383.68,3280951.78 644414.29,3280947.40">
        <lane index="0" width="3.66" />
    </edge>
    <edge id="382.0" from="node_368_end" to="j_merge_start_25" numLanes="2" speed="13.89" type="town" shape="644982.36,3280947.76 644996.61,3280946.93 644996.61,3280946.93 645023.06,3280945.39 645023.06,3280945.39 645044.06,3280944.21">
        <lane index="0" width="3.66" />
        <lane index="1" width="3.66" />
    </edge>
    <edge id="383.0" from="node_373_end" to="node_383_end" numLanes="3" speed="13.89" type="town" shape="646648.35,3280914.65 646672.64,3280918.96 646672.64,3280918.96 646696.97,3280923.23 646696.97,3280923.23 646701.23,3280923.98">
        <lane index="0" width="3.66" type="shoulder" disallow="all" />
        <lane index="1" width="3.66" />
        <lane index="2" width="3.66" />
    </edge>
    <edge id="384.0" from="node_383_end" to="node_384_end" numLanes="3" speed="13.89" type="town" shape="646701.23,3280923.98 646720.85,3280927.44 646720.85,3280927.44 646744.71,3280931.64 646744.71,3280931.64 646751.40,3280932.82">
        <lane index="0" width="3.66" type="shoulder" disallow="all" />
        <lane index="1" width="3.66" />
        <lane index="2" width="3.66" />
    </edge>
    <edge id="385.0" from="node_384_end" to="junction_82" numLanes="3" speed="13.89" type="town" shape="646751.40,3280932.82 646768.78,3280935.89 646768.78,3280935.89 646792.63,3280940.13 646792.63,3280940.13 646816.91,3280944.46 646816.91,3280944.46 646840.96,3280948.73 646840.96,3280948.73 646864.97,3280953.03 646864.97,3280953.03 646889.18,3280957.28 646889.18,3280957.28 646913.97,3280961.66 646913.97,3280961.66 646937.33,3280965.85 646937.33,3280965.85 646961.33,3280970.08 646961.33,3280970.08 646985.23,3280974.34 646985.23,3280974.34 647009.15,3280978.61 647009.15,3280978.61 647033.27,3280982.88 647033.27,3280982.88 647057.86,3280987.26 647057.86,3280987.26 647081.45,3280991.48 647081.45,3280991.48 647105.62,3280995.74 647105.62,3280995.74 647129.55,3280999.94 647129.55,3280999.94 647153.67,3281004.22 647153.67,3281004.22 647177.66,3281008.46 647177.66,3281008.46 647201.42,3281012.70 647201.42,3281012.70 647225.57,3281017.00 647225.57,3281017.00 647250.08,3281021.38 647250.08,3281021.38 647285.97,3281027.72 647285.97,3281027.72 647321.73,3281034.01 647321.73,3281034.01 647346.12,3281038.35 647346.12,3281038.35 647370.26,3281042.64 647370.26,3281042.64 647406.79,3281049.16 647406.79,3281049.16 647430.65,3281053.40 647430.65,3281053.40 647455.01,3281057.73 647455.01,3281057.73 647478.26,3281061.83 647478.26,3281061.83 647502.31,3281066.09 647502.31,3281066.09 647526.43,3281070.37 647526.43,3281070.37 647562.74,3281076.80 647562.74,3281076.80 647598.50,3281083.20 647598.50,3281083.20 647634.71,3281089.69 647634.71,3281089.69 647683.11,3281098.33 647683.11,3281098.33 647719.07,3281104.72 647719.07,3281104.72 647755.42,3281111.16 647755.42,3281111.16 647779.81,3281115.50 647779.81,3281115.50 647803.56,3281119.71 647803.56,3281119.71 647827.42,3281123.97 647827.42,3281123.97 647839.46,3281126.11 647839.46,3281126.11 647863.42,3281130.34 647863.42,3281130.34 647875.48,3281132.48 647875.48,3281132.48 647899.31,3281136.70 647899.31,3281136.70 647923.93,3281141.08 647923.93,3281141.08 647947.18,3281145.22 647947.18,3281145.22 647971.56,3281149.49 647971.56,3281149.49 647995.89,3281153.81 647995.89,3281153.81 648019.57,3281158.02 648019.57,3281158.02 648044.36,3281162.41 648044.36,3281162.41 648068.73,3281166.76 648068.73,3281166.76 648104.33,3281173.12 648104.33,3281173.12 648140.21,3281179.48 648140.21,3281179.48 648176.48,3281185.91 648176.48,3281185.91 648200.99,3281190.22 648200.99,3281190.22 648224.63,3281194.40 648224.63,3281194.40 648248.89,3281198.72 648248.89,3281198.72 648284.50,3281205.01 648284.50,3281205.01 648320.77,3281211.55 648320.77,3281211.55 648356.96,3281218.00 648356.96,3281218.00 648393.20,3281224.47 648393.20,3281224.47 648441.13,3281232.94 648441.13,3281232.94 648477.15,3281239.29 648477.15,3281239.29 648525.65,3281247.97 648525.65,3281247.97 648561.44,3281254.32 648561.44,3281254.32 648597.59,3281260.77 648597.59,3281260.77 648633.81,3281267.23 648633.81,3281267.23 648669.85,3281273.62 648669.85,3281273.62 648705.53,3281280.03 648705.53,3281280.03 648741.97,3281286.43 648741.97,3281286.43 648790.18,3281294.99 648790.18,3281294.99 648826.12,3281301.39 648826.12,3281301.39 648862.16,3281307.80 648862.16,3281307.80 648898.15,3281314.24 648898.15,3281314.24 648934.37,3281320.65 648934.37,3281320.65 648970.19,3281326.97 648970.19,3281326.97 649006.80,3281333.45 649006.80,3281333.45 649043.05,3281339.85 649043.05,3281339.85 649079.18,3281346.27 649079.18,3281346.27 649127.46,3281354.85 649127.46,3281354.85 649174.83,3281363.24 649174.83,3281363.24 649211.60,3281369.77 649211.60,3281369.77 649247.43,3281376.17 649247.43,3281376.17 649271.24,3281380.41 649271.24,3281380.41 649307.75,3281386.93 649307.75,3281386.93 649355.84,3281395.47 649355.84,3281395.47 649391.60,3281401.80 649391.60,3281401.80 649428.08,3281408.25 649428.08,3281408.25 649476.12,3281416.74 649476.12,3281416.74 649524.01,3281425.27 649524.01,3281425.27 649559.52,3281431.61 649559.52,3281431.61 649596.41,3281438.20 649596.41,3281438.20 649632.54,3281444.56 649632.54,3281444.56 649680.72,3281453.08 649680.72,3281453.08 649729.40,3281461.70 649729.40,3281461.70 649765.25,3281468.01 649765.25,3281468.01 649801.36,3281474.40 649801.36,3281474.40 649837.71,3281480.91 649837.71,3281480.91 649873.83,3281487.35 649873.83,3281487.35 649922.32,3281495.84 649922.32,3281495.84 649958.26,3281501.92 649958.26,3281501.92 650006.80,3281509.56 650006.80,3281509.56 650043.79,3281515.03 650043.79,3281515.03 650091.72,3281521.66 650091.72,3281521.66 650128.36,3281526.62 650128.36,3281526.62 650165.24,3281531.56 650165.24,3281531.56 650213.49,3281538.13 650213.49,3281538.13 650249.68,3281543.05 650249.68,3281543.05 650285.94,3281548.01 650285.94,3281548.01 650322.74,3281552.97 650322.74,3281552.97 650358.90,3281557.91 650358.90,3281557.91 650382.98,3281561.16 650382.98,3281561.16 650419.26,3281566.08 650419.26,3281566.08 650456.37,3281571.08 650456.37,3281571.08 650505.11,3281577.68 650505.11,3281577.68 650541.42,3281582.60 650541.42,3281582.60 650589.85,3281589.10 650589.85,3281589.10 650626.31,3281594.04 650626.31,3281594.04 650662.55,3281598.86 650662.55,3281598.86 650699.23,3281603.85 650699.23,3281603.85 650735.51,3281608.76 650735.51,3281608.76 650771.71,3281613.70 650771.71,3281613.70 650807.81,3281618.61 650807.81,3281618.61 650832.59,3281621.88 650832.59,3281621.88 650856.79,3281625.11 650856.79,3281625.11 650880.89,3281628.37 650880.89,3281628.37 650904.85,3281631.62 650904.85,3281631.62 650929.13,3281634.92 650929.13,3281634.92 650953.68,3281638.29 650953.68,3281638.29 650990.04,3281643.20 650990.04,3281643.20 651026.00,3281648.14 651026.00,3281648.14 651062.03,3281653.02 651062.03,3281653.02 651110.44,3281659.52 651110.44,3281659.52 651146.90,3281664.39 651146.90,3281664.39 651170.14,3281667.55 651170.14,3281667.55 651207.02,3281672.54 651207.02,3281672.54 651254.80,3281679.05 651254.80,3281679.05 651279.49,3281682.46 651279.49,3281682.46 651315.80,3281687.30 651315.80,3281687.30 651352.03,3281692.19 651352.03,3281692.19 651375.75,3281695.35 651375.75,3281695.35 651400.67,3281698.74 651400.67,3281698.74 651436.62,3281703.61 651436.62,3281703.61 651472.69,3281708.49 651472.69,3281708.49 651509.23,3281713.40 651509.23,3281713.40 651544.93,3281718.12 651544.93,3281718.12 651581.06,3281722.96 651581.06,3281722.96 651617.51,3281727.91 651617.51,3281727.91 651641.93,3281731.18 651641.93,3281731.18 651665.46,3281734.36 651665.46,3281734.36 651689.84,3281737.71 651689.84,3281737.71 651714.02,3281741.04 651714.02,3281741.04 651738.46,3281744.36 651738.46,3281744.36 651762.64,3281747.59 651762.64,3281747.59 651787.10,3281750.94 651787.10,3281750.94 651811.06,3281754.20 651811.06,3281754.20 651834.48,3281757.42 651834.48,3281757.42 651859.58,3281760.77 651859.58,3281760.77 651883.82,3281764.02 651883.82,3281764.02 651907.70,3281767.19 651907.70,3281767.19 651944.03,3281772.18 651944.03,3281772.18 651968.74,3281775.49 651968.74,3281775.49 651980.56,3281776.99 651980.56,3281776.99 652004.69,3281780.30 652004.69,3281780.30 652028.87,3281783.61 652028.87,3281783.61 652053.12,3281786.90 652053.12,3281786.90 652077.71,3281790.16 652077.71,3281790.16 652101.83,3281793.44 652101.83,3281793.44 652126.66,3281796.84 652126.66,3281796.84 652137.81,3281798.35 652137.81,3281798.35 652162.41,3281801.72 652162.41,3281801.72 652186.27,3281804.94 652186.27,3281804.94 652210.73,3281808.26 652210.73,3281808.26 652235.01,3281811.52 652235.01,3281811.52 652259.03,3281814.75 652259.03,3281814.75 652283.35,3281817.95 652283.35,3281817.95 652319.96,3281822.94 652319.96,3281822.94 652343.59,3281826.16 652343.59,3281826.16 652367.70,3281829.39 652367.70,3281829.39 652404.41,3281834.33 652404.41,3281834.33 652429.56,3281837.79 652429.56,3281837.79 652452.89,3281840.95 652452.89,3281840.95 652465.27,3281842.61 652465.27,3281842.61 652477.51,3281844.29 652477.51,3281844.29 652489.55,3281845.95 652489.55,3281845.95 652526.02,3281850.87 652526.02,3281850.87 652537.91,3281852.53 652537.91,3281852.53 652562.72,3281855.84 652562.72,3281855.84 652585.70,3281858.97 652585.70,3281858.97 652620.62,3281863.67 652620.62,3281863.67 652644.05,3281866.81 652644.05,3281866.81 652656.88,3281868.51 652656.88,3281868.51 652681.50,3281871.83 652681.50,3281871.83 652704.91,3281875.03 652704.91,3281875.03 652727.07,3281878.04 652727.07,3281878.04 652734.07,3281878.95 652734.07,3281878.95 652750.96,3281881.24 652750.96,3281881.24 652768.77,3281883.61 652768.77,3281883.61 652786.71,3281886.00 652786.71,3281886.00 652802.59,3281888.15 652802.59,3281888.15 652818.57,3281890.27 652818.57,3281890.27 652826.19,3281891.30">
        <lane index="0" width="3.66" type="shoulder" disallow="all" />
        <lane index="1" width="3.66" />
        <lane index="2" width="3.66" />
    </edge>
    <edge id="363.0" from="junction_81" to="node_364_start" numLanes="2" speed="13.89" type="town" shape="644146.85,3280994.82 644182.00,3280992.82 644182.00,3280992.82 644229.19,3280990.01">
        <lane index="0" width="3.66" />
        <lane index="1" width="3.66" />
    </edge>
    <edge id="380.0" from="junction_81" to="node_379_start" numLanes="1" speed="13.89" type="town" shape="644146.52,3280987.42 644171.60,3280983.73 644171.60,3280983.73 644228.04,3280975.08">
        <lane index="0" width="3.66" />
    </edge>
    <edge id="merge_zone_25" from="j_merge_start_25" to="j_merge_end_25" numLanes="3" speed="13.89" name="Merge zone 25" type="highway_merge" shape="645133.73,3280939.12 645133.73,3280939.12 645172.48,3280936.92 645172.48,3280936.92 645223.92,3280934.09 645223.92,3280934.09 645314.05,3280929.03">
        <lane index="0" width="3.66" />
        <lane index="1" width="3.66" />
        <lane index="2" width="3.66" />
    </edge>
</edges>