<?xml version="1.0" encoding="UTF-8"?>

<!-- generated on 2025-10-19 17:35:17 by Eclipse SUMO netconvert Version 1.23.1
<netconvertConfiguration xmlns:xsi="http://www.w3.org/2001/XMLSchema-instance" xsi:noNamespaceSchemaLocation="http://sumo.dlr.de/xsd/netconvertConfiguration.xsd">

    <input>
        <node-files value="/home/sdai/harry/TeraSim/jupiter/eb/jupiter_eb_tiles/tile_0052/tile_0052.nod.xml"/>
        <edge-files value="/home/sdai/harry/TeraSim/jupiter/eb/jupiter_eb_tiles/tile_0052/tile_0052.edg.xml"/>
        <connection-files value="/home/sdai/harry/TeraSim/jupiter/eb/jupiter_eb_tiles/tile_0052/tile_0052.con.xml"/>
    </input>

    <output>
        <output-file value="/home/sdai/harry/TeraSim/jupiter/eb/jupiter_eb_tiles/tile_0052/tile_0052.net.xml"/>
        <output.street-names value="true"/>
        <output.original-names value="true"/>
    </output>

    <processing>
        <geometry.remove value="false"/>
        <geometry.min-dist value="0.5"/>
        <edges.join value="false"/>
    </processing>

    <junctions>
        <no-internal-links value="false"/>
        <no-turnarounds value="true"/>
        <junctions.join value="true"/>
        <junctions.join-dist value="10"/>
        <junctions.corner-detail value="5"/>
        <junctions.internal-link-detail value="5"/>
        <junctions.limit-turn-speed value="5.5"/>
        <rectangular-lane-cut value="true"/>
        <check-lane-foes.all value="true"/>
    </junctions>

</netconvertConfiguration>
-->

<net version="1.20" junctionCornerDetail="5" junctionLinkDetail="5" rectangularLaneCut="true" limitTurnSpeed="5.50" checkLaneFoesAll="1" xmlns:xsi="http://www.w3.org/2001/XMLSchema-instance" xsi:noNamespaceSchemaLocation="http://sumo.dlr.de/xsd/net_file.xsd">

    <location netOffset="-644146.52,-3280877.50" convBoundary="0.00,0.00,8679.67,1013.80" origBoundary="0.00,0.00,652826.19,3281891.30" projParameter="!"/>

    <edge id=":j_merge_end_25_0" function="internal">
        <lane id=":j_merge_end_25_0_0" index="0" speed="13.89" length="2.64" width="3.66" shape="1166.87,42.40 1167.58,49.69"/>
        <lane id=":j_merge_end_25_0_1" index="1" speed="13.89" length="2.64" width="3.66" shape="1167.07,46.06 1167.37,46.04"/>
        <lane id=":j_merge_end_25_0_2" index="2" speed="13.89" length="2.64" width="3.66" shape="1167.28,49.71 1167.58,49.69"/>
    </edge>
    <edge id=":j_merge_start_25_0" function="internal">
        <lane id=":j_merge_start_25_0_0" index="0" speed="13.89" length="89.79" width="3.66" shape="897.04,57.40 911.04,56.86 938.12,55.36 967.07,53.65 986.69,52.48"/>
    </edge>
    <edge id=":j_merge_start_25_1" function="internal">
        <lane id=":j_merge_start_25_1_0" index="0" speed="13.89" length="89.81" width="3.66" shape="897.23,61.23 986.90,56.14"/>
        <lane id=":j_merge_start_25_1_1" index="1" speed="13.89" length="89.81" width="3.66" shape="897.44,64.88 987.11,59.79"/>
    </edge>
    <edge id=":node_364_end_0" function="internal">
        <lane id=":node_364_end_0_0" index="0" speed="13.89" length="0.30" width="3.66" shape="521.08,82.44 521.38,82.42"/>
        <lane id=":node_364_end_0_1" index="1" speed="13.89" length="0.30" width="3.66" shape="521.28,86.09 521.58,86.07"/>
    </edge>
    <edge id=":node_364_start_0" function="internal">
        <lane id=":node_364_start_0_0" index="0" speed="13.89" length="3.00" width="3.66" shape="80.85,107.12 83.86,106.95"/>
        <lane id=":node_364_start_0_1" index="1" speed="13.89" length="3.00" width="3.66" shape="81.07,110.77 84.06,110.60"/>
    </edge>
    <edge id=":node_368_end_0" function="internal">
        <lane id=":node_368_end_0_0" index="0" speed="13.89" length="3.00" width="3.66" shape="834.03,64.86 837.02,64.69"/>
        <lane id=":node_368_end_0_1" index="1" speed="13.89" length="3.00" width="3.66" shape="834.24,68.52 837.24,68.35"/>
    </edge>
    <edge id=":node_368_start_0" function="internal">
        <lane id=":node_368_start_0_0" index="0" speed="13.89" length="0.30" width="3.66" shape="632.47,76.21 632.76,76.19"/>
        <lane id=":node_368_start_0_1" index="1" speed="13.89" length="0.30" width="3.66" shape="632.67,79.86 632.97,79.84"/>
    </edge>
    <edge id=":node_371_end_0" function="internal">
        <lane id=":node_371_end_0_0" index="0" speed="13.89" length="0.30" width="3.66" shape="835.61,53.86 835.90,53.89"/>
    </edge>
    <edge id=":node_373_end_0" function="internal">
        <lane id=":node_373_end_0_0" index="0" speed="13.89" length="0.30" width="3.66" shape="2502.64,31.72 2502.94,31.77"/>
        <lane id=":node_373_end_0_1" index="1" speed="13.89" length="0.30" width="3.66" shape="2502.00,35.32 2502.30,35.37"/>
    </edge>
    <edge id=":node_375_start_0" function="internal">
        <lane id=":node_375_start_0_0" index="0" speed="13.89" length="0.30" width="3.66" shape="574.89,79.40 575.19,79.38"/>
        <lane id=":node_375_start_0_1" index="1" speed="13.89" length="0.30" width="3.66" shape="575.10,83.05 575.40,83.03"/>
    </edge>
    <edge id=":node_379_start_0" function="internal">
        <lane id=":node_379_start_0_0" index="0" speed="13.89" length="0.30" width="3.66" shape="81.09,95.79 81.39,95.75"/>
    </edge>
    <edge id=":node_383_end_0" function="internal">
        <lane id=":node_383_end_0_0" index="0" speed="13.89" length="0.30" width="3.66" shape="2555.51,41.05 2555.81,41.10"/>
        <lane id=":node_383_end_0_1" index="1" speed="13.89" length="0.30" width="3.66" shape="2554.88,44.65 2555.18,44.70"/>
    </edge>
    <edge id=":node_384_end_0" function="internal">
        <lane id=":node_384_end_0_0" index="0" speed="13.89" length="0.30" width="3.66" shape="2605.69,49.89 2605.98,49.94"/>
        <lane id=":node_384_end_0_1" index="1" speed="13.89" length="0.30" width="3.66" shape="2605.05,53.49 2605.35,53.54"/>
    </edge>

    <edge id="363.0" from="junction_81" to="node_364_start" priority="-1" type="town" shape="0.33,117.32 35.48,115.32 82.67,112.51">
        <lane id="363.0_0" index="0" speed="13.89" length="80.36" width="3.66" shape="0.64,111.80 35.16,109.84 80.85,107.12"/>
        <lane id="363.0_1" index="1" speed="13.89" length="80.36" width="3.66" shape="0.85,115.46 35.37,113.49 81.07,110.77"/>
    </edge>
    <edge id="364.0" from="node_364_start" to="node_364_end" priority="-1" type="town" shape="82.67,112.51 113.93,110.77 197.93,106.04 264.15,102.21 331.70,98.39 365.82,96.51 436.95,92.55 496.38,89.26 521.53,87.91">
        <lane id="364.0_0" index="0" disallow="all" speed="13.89" length="437.91" width="3.66" shape="83.65,103.29 113.42,101.63 197.41,96.90 263.63,93.07 331.19,89.25 365.31,87.37 436.44,83.41 495.88,80.12 520.88,78.78" type="shoulder"/>
        <lane id="364.0_1" index="1" speed="13.89" length="437.91" width="3.66" shape="83.86,106.95 113.62,105.29 197.62,100.56 263.84,96.73 331.39,92.91 365.52,91.03 436.65,87.07 496.08,83.78 521.08,82.44"/>
        <lane id="364.0_2" index="2" speed="13.89" length="437.91" width="3.66" shape="84.06,110.60 113.83,108.94 197.83,104.21 264.05,100.38 331.60,96.56 365.72,94.68 436.85,90.72 496.28,87.43 521.28,86.09"/>
    </edge>
    <edge id="368.0" from="node_368_start" to="node_368_end" priority="-1" type="town" shape="632.92,81.68 690.73,78.44 736.03,75.82 777.98,73.49 835.84,70.26">
        <lane id="368.0_0" index="0" disallow="all" speed="13.89" length="201.59" width="3.66" shape="632.56,72.54 690.21,69.30 735.51,66.68 777.47,64.35 833.83,61.21" type="shoulder"/>
        <lane id="368.0_1" index="1" speed="13.89" length="201.59" width="3.66" shape="632.76,76.19 690.42,72.96 735.72,70.34 777.67,68.01 834.03,64.86"/>
        <lane id="368.0_2" index="2" speed="13.89" length="201.59" width="3.66" shape="632.97,79.84 690.63,76.61 735.93,73.99 777.88,71.66 834.24,68.52"/>
    </edge>
    <edge id="371.0" from="node_371_start" to="node_371_end" priority="-1" type="town" shape="629.54,29.55 732.63,44.31 757.48,47.55 779.36,50.27 799.59,52.40 821.65,54.45 835.60,55.70">
        <lane id="371.0_0" index="0" speed="13.89" length="207.50" width="3.66" shape="629.79,27.74 732.88,42.50 757.71,45.73 779.57,48.45 799.77,50.58 821.82,52.63 835.61,53.86"/>
    </edge>
    <edge id="373.0" from="j_merge_end_25" to="node_373_end" priority="-1" type="town" shape="1167.53,51.53 1202.84,49.57 1227.54,48.16 1253.35,46.70 1283.24,44.96 1316.54,43.08 1377.44,39.55 1474.24,34.14 1631.71,25.26 1724.74,20.06 1774.26,17.23 1828.83,14.18 1871.43,11.72 1961.52,6.41 1981.90,5.27 2006.22,3.97 2042.95,2.19 2067.62,1.18 2103.37,0.18 2139.76,0.00 2176.45,0.47 2212.95,1.67 2249.00,3.69 2285.57,6.39 2321.61,9.82 2357.86,14.07 2381.97,17.34 2405.89,20.82 2430.40,24.70 2454.74,28.82 2466.42,30.88 2490.60,35.16 2501.83,37.15">
        <lane id="373.0_0" index="0" disallow="all" speed="13.89" length="1339.14" width="3.66" shape="1167.17,42.39 1202.33,40.43 1227.02,39.02 1252.83,37.57 1282.72,35.82 1316.02,33.95 1376.92,30.41 1473.73,25.00 1631.20,16.12 1724.23,10.92 1773.74,8.09 1828.31,5.04 1870.90,2.59 1960.99,-2.72 1981.40,-3.87 2005.75,-5.17 2042.54,-6.95 2067.30,-7.96 2103.22,-8.97 2139.80,-9.15 2176.66,-8.68 2213.36,-7.47 2249.59,-5.44 2286.34,-2.73 2322.58,0.72 2359.01,4.99 2383.24,8.28 2407.26,11.77 2431.88,15.67 2456.29,19.80 2468.01,21.87 2492.20,26.15 2503.28,28.11" type="shoulder"/>
        <lane id="373.0_1" index="1" speed="13.89" length="1339.14" width="3.66" shape="1167.37,46.04 1202.53,44.09 1227.23,42.68 1253.04,41.22 1282.93,39.48 1316.23,37.60 1377.13,34.07 1473.93,28.66 1631.40,19.78 1724.43,14.58 1773.95,11.75 1828.52,8.70 1871.11,6.24 1961.20,0.93 1981.60,-0.21 2005.94,-1.51 2042.70,-3.29 2067.43,-4.31 2103.28,-5.31 2139.78,-5.49 2176.58,-5.02 2213.19,-3.81 2249.36,-1.79 2286.03,0.92 2322.19,4.36 2358.55,8.62 2382.73,11.90 2406.71,15.39 2431.29,19.28 2455.67,23.41 2467.38,25.47 2491.56,29.75 2502.64,31.72"/>
        <lane id="373.0_2" index="2" speed="13.89" length="1339.14" width="3.66" shape="1167.58,49.69 1202.74,47.74 1227.44,46.33 1253.25,44.87 1283.14,43.13 1316.44,41.25 1377.34,37.72 1474.14,32.31 1631.61,23.43 1724.64,18.23 1774.16,15.40 1828.73,12.35 1871.32,9.89 1961.41,4.58 1981.80,3.44 2006.13,2.14 2042.87,0.36 2067.56,-0.65 2103.34,-1.65 2139.77,-1.83 2176.49,-1.36 2213.03,-0.16 2249.12,1.86 2285.72,4.57 2321.80,8.00 2358.09,12.25 2382.22,15.53 2406.16,19.01 2430.70,22.89 2455.05,27.02 2466.74,29.08 2490.92,33.36 2502.00,35.32"/>
    </edge>
    <edge id="374.0" from="node_371_end" to="j_merge_start_25" priority="-1" type="town" shape="835.60,55.70 845.01,56.46 855.87,57.20 868.23,57.89 879.05,58.45 885.93,58.76 894.81,59.11 897.40,59.25">
        <lane id="374.0_0" index="0" speed="13.89" length="61.24" width="3.66" shape="835.90,53.89 845.15,54.64 855.98,55.37 868.33,56.06 879.14,56.62 886.01,56.93 894.89,57.28 897.04,57.40"/>
    </edge>
    <edge id="375.0" from="node_375_start" to="node_368_start" priority="-1" type="town">
        <lane id="375.0_0" index="0" disallow="all" speed="13.89" length="57.36" width="3.66" shape="574.99,75.73 632.26,72.55" type="shoulder"/>
        <lane id="375.0_1" index="1" speed="13.89" length="57.36" width="3.66" shape="575.19,79.38 632.47,76.21"/>
        <lane id="375.0_2" index="2" speed="13.89" length="57.36" width="3.66" shape="575.40,83.03 632.67,79.86"/>
    </edge>
    <edge id="377.0" from="node_364_end" to="node_375_start" priority="-1" type="town">
        <lane id="377.0_0" index="0" disallow="all" speed="13.89" length="53.60" width="3.66" shape="521.17,78.77 574.69,75.74" type="shoulder"/>
        <lane id="377.0_1" index="1" speed="13.89" length="53.60" width="3.66" shape="521.38,82.42 574.89,79.40"/>
        <lane id="377.0_2" index="2" speed="13.89" length="53.60" width="3.66" shape="521.58,86.07 575.10,83.05"/>
    </edge>
    <edge id="379.0" from="node_379_start" to="node_379_end" priority="-1" type="town" shape="81.52,97.58 109.36,93.21 159.04,85.50 200.44,79.54 237.16,74.28 267.77,69.90">
        <lane id="379.0_0" index="0" speed="13.89" length="188.18" width="3.66" shape="81.39,95.75 109.08,91.40 158.77,83.69 200.18,77.73 236.90,72.47 267.52,68.09"/>
    </edge>
    <edge id="380.0" from="junction_81" to="node_379_start" priority="-1" type="town" shape="0.00,109.92 25.08,106.23 81.52,97.58">
        <lane id="380.0_0" index="0" speed="13.89" length="81.76" width="3.66" shape="0.25,108.03 24.81,104.42 81.09,95.79"/>
    </edge>
    <edge id="382.0" from="node_368_end" to="j_merge_start_25" priority="-1" type="town" shape="835.84,70.26 850.09,69.43 876.54,67.89 897.54,66.71">
        <lane id="382.0_0" index="0" speed="13.89" length="60.31" width="3.66" shape="837.02,64.69 849.77,63.95 876.23,62.41 897.23,61.23"/>
        <lane id="382.0_1" index="1" speed="13.89" length="60.31" width="3.66" shape="837.24,68.35 849.98,67.60 876.44,66.06 897.44,64.88"/>
    </edge>
    <edge id="383.0" from="node_373_end" to="node_383_end" priority="-1" type="town" shape="2501.83,37.15 2526.12,41.46 2550.45,45.73 2554.71,46.48">
        <lane id="383.0_0" index="0" disallow="all" speed="13.89" length="53.39" width="3.66" shape="2503.58,28.17 2527.71,32.45 2552.03,36.72 2556.15,37.44" type="shoulder"/>
        <lane id="383.0_1" index="1" speed="13.89" length="53.39" width="3.66" shape="2502.94,31.77 2527.07,36.05 2551.40,40.32 2555.51,41.05"/>
        <lane id="383.0_2" index="2" speed="13.89" length="53.39" width="3.66" shape="2502.30,35.37 2526.44,39.66 2550.77,43.93 2554.88,44.65"/>
    </edge>
    <edge id="384.0" from="node_383_end" to="node_384_end" priority="-1" type="town" shape="2554.71,46.48 2574.33,49.94 2598.19,54.14 2604.88,55.32">
        <lane id="384.0_0" index="0" disallow="all" speed="13.89" length="50.64" width="3.66" shape="2556.45,37.50 2575.92,40.93 2599.78,45.13 2606.32,46.28" type="shoulder"/>
        <lane id="384.0_1" index="1" speed="13.89" length="50.64" width="3.66" shape="2555.81,41.10 2575.28,44.53 2599.14,48.73 2605.69,49.89"/>
        <lane id="384.0_2" index="2" speed="13.89" length="50.64" width="3.66" shape="2555.18,44.70 2574.65,48.14 2598.51,52.34 2605.05,53.49"/>
    </edge>
    <edge id="385.0" from="node_384_end" to="junction_82" priority="-1" type="town" shape="2604.88,55.32 2622.26,58.39 2646.11,62.63 2670.39,66.96 2694.44,71.23 2718.45,75.53 2742.66,79.78 2767.45,84.16 2790.81,88.35 2814.81,92.58 2838.71,96.84 2862.63,101.11 2886.75,105.38 2911.34,109.76 2934.93,113.98 2959.10,118.24 2983.03,122.44 3007.15,126.72 3031.14,130.96 3054.90,135.20 3079.05,139.50 3103.56,143.88 3139.45,150.22 3175.21,156.51 3199.60,160.85 3223.74,165.14 3260.27,171.66 3284.13,175.90 3308.49,180.23 3331.74,184.33 3355.79,188.59 3379.91,192.87 3416.22,199.30 3451.98,205.70 3488.19,212.19 3536.59,220.83 3572.55,227.22 3608.90,233.66 3633.29,238.00 3657.04,242.21 3680.90,246.47 3692.94,248.61 3716.90,252.84 3728.96,254.98 3752.79,259.20 3777.41,263.58 3800.66,267.72 3825.04,271.99 3849.37,276.31 3873.05,280.52 3897.84,284.91 3922.21,289.26 3957.81,295.62 3993.69,301.98 4029.96,308.41 4054.47,312.72 4078.11,316.90 4102.37,321.22 4137.98,327.51 4174.25,334.05 4210.44,340.50 4246.68,346.97 4294.61,355.44 4330.63,361.79 4379.13,370.47 4414.92,376.82 4451.07,383.27 4487.29,389.73 4523.33,396.12 4559.01,402.53 4595.45,408.93 4643.66,417.49 4679.60,423.89 4715.64,430.30 4751.63,436.74 4787.85,443.15 4823.67,449.47 4860.28,455.95 4896.53,462.35 4932.66,468.77 4980.94,477.35 5028.31,485.74 5065.08,492.27 5100.91,498.67 5124.72,502.91 5161.23,509.43 5209.32,517.97 5245.08,524.30 5281.56,530.75 5329.60,539.24 5377.49,547.77 5413.00,554.11 5449.89,560.70 5486.02,567.06 5534.20,575.58 5582.88,584.20 5618.73,590.51 5654.84,596.90 5691.19,603.41 5727.31,609.85 5775.80,618.34 5811.74,624.42 5860.28,632.06 5897.27,637.53 5945.20,644.16 5981.84,649.12 6018.72,654.06 6066.97,660.63 6103.16,665.55 6139.42,670.51 6176.22,675.47 6212.38,680.41 6236.46,683.66 6272.74,688.58 6309.85,693.58 6358.59,700.18 6394.90,705.10 6443.33,711.60 6479.79,716.54 6516.03,721.36 6552.71,726.35 6588.99,731.26 6625.19,736.20 6661.29,741.11 6686.07,744.38 6710.27,747.61 6734.37,750.87 6758.33,754.12 6782.61,757.42 6807.16,760.79 6843.52,765.70 6879.48,770.64 6915.51,775.52 6963.92,782.02 7000.38,786.89 7023.62,790.05 7060.50,795.04 7108.28,801.55 7132.97,804.96 7169.28,809.80 7205.51,814.69 7229.23,817.85 7254.15,821.24 7290.10,826.11 7326.17,830.99 7362.71,835.90 7398.41,840.62 7434.54,845.46 7470.99,850.41 7495.41,853.68 7518.94,856.86 7543.32,860.21 7567.50,863.54 7591.94,866.86 7616.12,870.09 7640.58,873.44 7664.54,876.70 7687.96,879.92 7713.06,883.27 7737.30,886.52 7761.18,889.69 7797.51,894.68 7822.22,897.99 7834.04,899.49 7858.17,902.80 7882.35,906.11 7906.60,909.40 7931.19,912.66 7955.31,915.94 7980.14,919.34 7991.29,920.85 8015.89,924.22 8039.75,927.44 8064.21,930.76 8088.49,934.02 8112.51,937.25 8136.83,940.45 8173.44,945.44 8197.07,948.66 8221.18,951.89 8257.89,956.83 8283.04,960.29 8306.37,963.45 8318.75,965.11 8330.99,966.79 8343.03,968.45 8379.50,973.37 8391.39,975.03 8416.20,978.34 8439.18,981.47 8474.10,986.17 8497.53,989.31 8510.36,991.01 8534.98,994.33 8558.39,997.53 8580.55,1000.54 8587.55,1001.45 8604.44,1003.74 8622.25,1006.11 8640.19,1008.50 8656.07,1010.65 8672.05,1012.77 8679.67,1013.80">
        <lane id="385.0_0" index="0" disallow="all" speed="13.89" length="6150.86" width="3.66" shape="2606.62,46.34 2623.86,49.38 2647.71,53.62 2671.99,57.95 2696.05,62.22 2720.05,66.52 2744.25,70.77 2769.05,75.15 2792.41,79.34 2816.41,83.57 2840.32,87.83 2864.23,92.10 2888.35,96.37 2912.95,100.75 2936.53,104.97 2960.69,109.23 2984.62,113.43 3008.75,117.71 3032.74,121.95 3056.51,126.19 3080.66,130.49 3105.16,134.87 3141.04,141.21 3176.80,147.50 3201.20,151.84 3225.35,156.13 3261.88,162.65 3285.73,166.89 3310.09,171.22 3333.33,175.32 3357.39,179.58 3381.51,183.86 3417.82,190.29 3453.59,196.69 3489.80,203.18 3538.19,211.82 3574.15,218.21 3610.50,224.65 3634.89,228.99 3658.64,233.20 3682.51,237.46 3694.53,239.60 3718.49,243.83 3730.56,245.97 3754.39,250.19 3779.01,254.57 3802.25,258.71 3826.63,262.98 3850.97,267.30 3874.65,271.51 3899.44,275.90 3923.82,280.25 3959.41,286.61 3995.29,292.97 4031.55,299.40 4056.06,303.71 4079.71,307.89 4103.97,312.21 4139.59,318.50 4175.86,325.04 4212.05,331.49 4248.28,337.96 4296.20,346.43 4332.23,352.78 4380.74,361.46 4416.52,367.81 4452.68,374.26 4488.89,380.72 4524.94,387.11 4560.61,393.52 4597.04,399.92 4645.26,408.48 4681.20,414.88 4717.25,421.29 4753.23,427.73 4789.44,434.14 4825.26,440.46 4861.87,446.94 4898.13,453.34 4934.26,459.76 4982.54,468.34 5029.91,476.73 5066.68,483.26 5102.52,489.66 5126.33,493.90 5162.83,500.42 5210.92,508.96 5246.67,515.29 5283.15,521.74 5331.20,530.23 5379.10,538.76 5414.61,545.10 5451.49,551.69 5487.61,558.05 5535.79,566.57 5584.47,575.19 5620.32,581.50 5656.44,587.89 5692.80,594.40 5728.90,600.84 5777.35,609.32 5813.21,615.39 5861.66,623.01 5898.57,628.47 5946.44,635.09 5983.06,640.05 6019.94,644.99 6068.20,651.56 6104.40,656.48 6140.65,661.44 6177.45,666.40 6213.61,671.34 6237.69,674.59 6273.97,679.51 6311.08,684.51 6359.82,691.11 6396.12,696.03 6444.55,702.53 6481.01,707.47 6517.25,712.29 6553.94,717.28 6590.22,722.19 6626.43,727.13 6662.51,732.04 6687.27,735.31 6711.49,738.54 6735.60,741.80 6759.56,745.05 6783.85,748.35 6808.39,751.72 6844.75,756.63 6880.72,761.57 6916.73,766.45 6965.13,772.95 7001.60,777.82 7024.85,780.98 7061.73,785.97 7109.52,792.48 7134.20,795.89 7170.50,800.73 7206.73,805.62 7230.45,808.78 7255.38,812.17 7291.33,817.04 7327.39,821.92 7363.92,826.83 7399.62,831.55 7435.76,836.39 7472.21,841.34 7496.63,844.61 7520.18,847.79 7544.57,851.15 7568.74,854.47 7593.16,857.79 7617.35,861.02 7641.82,864.37 7665.78,867.63 7689.19,870.85 7714.27,874.20 7738.51,877.45 7762.40,880.62 7798.74,885.61 7823.41,888.92 7835.24,890.42 7859.41,893.73 7883.59,897.04 7907.82,900.33 7932.41,903.59 7956.55,906.87 7981.38,910.27 7992.53,911.78 8017.12,915.15 8040.98,918.37 8065.43,921.69 8089.71,924.95 8113.72,928.18 8138.04,931.38 8174.68,936.37 8198.30,939.59 8222.40,942.82 8259.12,947.76 8284.28,951.22 8307.59,954.38 8319.98,956.04 8332.24,957.73 8344.27,959.38 8380.73,964.30 8392.63,965.96 8417.42,969.27 8440.41,972.40 8475.32,977.10 8498.74,980.24 8511.58,981.94 8536.21,985.26 8559.63,988.46 8581.77,991.47 8588.76,992.38 8605.66,994.67 8623.46,997.04 8641.41,999.43 8657.29,1001.58 8673.26,1003.70 8680.90,1004.73" type="shoulder"/>
        <lane id="385.0_1" index="1" speed="13.89" length="6150.86" width="3.66" shape="2605.98,49.94 2623.22,52.98 2647.07,57.23 2671.35,61.55 2695.40,65.83 2719.41,70.12 2743.61,74.37 2768.41,78.75 2791.77,82.94 2815.77,87.17 2839.67,91.44 2863.59,95.70 2887.71,99.97 2912.30,104.36 2935.89,108.57 2960.05,112.83 2983.98,117.03 3008.11,121.31 3032.10,125.55 3055.86,129.80 3080.01,134.10 3104.52,138.47 3140.40,144.81 3176.17,151.10 3200.56,155.44 3224.70,159.74 3261.23,166.26 3285.09,170.49 3309.45,174.82 3332.70,178.92 3356.75,183.18 3380.87,187.46 3417.18,193.89 3452.95,200.30 3489.16,206.79 3537.55,215.43 3573.51,221.81 3609.86,228.25 3634.25,232.59 3658.00,236.80 3681.86,241.07 3693.90,243.20 3717.86,247.43 3729.92,249.57 3753.75,253.79 3778.37,258.17 3801.61,262.31 3825.99,266.58 3850.33,270.90 3874.01,275.11 3898.80,279.50 3923.18,283.86 3958.77,290.21 3994.65,296.57 4030.92,303.00 4055.42,307.31 4079.07,311.49 4103.33,315.81 4138.94,322.11 4175.22,328.65 4211.40,335.10 4247.64,341.56 4295.56,350.03 4331.59,356.38 4380.09,365.07 4415.88,371.41 4452.03,377.87 4488.25,384.32 4524.29,390.72 4559.97,397.12 4596.41,403.52 4644.62,412.08 4680.56,418.48 4716.60,424.90 4752.59,431.33 4788.81,437.74 4824.63,444.06 4861.24,450.54 4897.49,456.94 4933.62,463.36 4981.90,471.94 5029.27,480.33 5066.04,486.87 5101.87,493.27 5125.68,497.51 5162.19,504.02 5210.28,512.56 5246.04,518.89 5282.52,525.34 5330.56,533.83 5378.45,542.37 5413.97,548.71 5450.85,555.29 5486.97,561.65 5535.16,570.17 5583.83,578.79 5619.68,585.10 5655.80,591.49 5692.16,598.01 5728.27,604.44 5776.73,612.93 5812.62,619.00 5861.11,626.63 5898.05,632.10 5945.94,638.72 5982.57,643.68 6019.45,648.62 6067.71,655.19 6103.90,660.11 6140.16,665.07 6176.96,670.03 6213.12,674.97 6237.20,678.22 6273.48,683.14 6310.59,688.14 6359.33,694.74 6395.63,699.66 6444.06,706.16 6480.52,711.10 6516.76,715.92 6553.45,720.91 6589.73,725.82 6625.93,730.76 6662.02,735.67 6686.79,738.94 6711.00,742.17 6735.11,745.43 6759.07,748.68 6783.35,751.98 6807.90,755.35 6844.26,760.26 6880.22,765.20 6916.24,770.08 6964.65,776.58 7001.11,781.45 7024.36,784.61 7061.24,789.60 7109.02,796.11 7133.71,799.52 7170.01,804.36 7206.24,809.25 7229.96,812.41 7254.89,815.80 7290.84,820.67 7326.90,825.55 7363.44,830.46 7399.13,835.18 7435.27,840.02 7471.72,844.97 7496.14,848.24 7519.68,851.42 7544.07,854.77 7568.24,858.10 7592.67,861.42 7616.86,864.65 7641.32,868.00 7665.28,871.26 7688.70,874.48 7713.79,877.83 7738.03,881.08 7761.91,884.25 7798.25,889.24 7822.94,892.55 7834.76,894.05 7858.92,897.36 7883.09,900.67 7907.33,903.96 7931.92,907.22 7956.05,910.50 7980.88,913.90 7992.03,915.41 8016.63,918.78 8040.49,922.00 8064.94,925.32 8089.22,928.58 8113.23,931.81 8137.56,935.01 8174.18,940.00 8197.81,943.22 8221.91,946.45 8258.63,951.39 8283.78,954.85 8307.10,958.01 8319.49,959.67 8331.74,961.35 8343.77,963.01 8380.24,967.93 8392.13,969.59 8416.93,972.90 8439.92,976.03 8474.83,980.73 8498.26,983.87 8511.09,985.57 8535.72,988.89 8559.13,992.09 8581.28,995.10 8588.28,996.01 8605.17,998.30 8622.97,1000.67 8640.92,1003.06 8656.80,1005.21 8672.78,1007.33 8680.41,1008.36"/>
        <lane id="385.0_2" index="2" speed="13.89" length="6150.86" width="3.66" shape="2605.35,53.54 2622.58,56.59 2646.43,60.83 2670.71,65.16 2694.76,69.43 2718.77,73.73 2742.98,77.98 2767.77,82.36 2791.13,86.55 2815.13,90.78 2839.03,95.04 2862.95,99.31 2887.07,103.58 2911.66,107.96 2935.25,112.18 2959.42,116.44 2983.35,120.64 3007.47,124.92 3031.46,129.16 3055.22,133.40 3079.37,137.70 3103.88,142.08 3139.77,148.42 3175.53,154.71 3199.92,159.05 3224.06,163.34 3260.59,169.86 3284.45,174.10 3308.81,178.43 3332.06,182.53 3356.11,186.79 3380.23,191.07 3416.54,197.50 3452.30,203.90 3488.51,210.39 3536.91,219.03 3572.87,225.42 3609.22,231.86 3633.61,236.20 3657.36,240.41 3681.22,244.67 3693.26,246.81 3717.22,251.04 3729.28,253.18 3753.11,257.40 3777.73,261.78 3800.98,265.92 3825.36,270.19 3849.69,274.51 3873.37,278.72 3898.16,283.11 3922.53,287.46 3958.13,293.82 3994.01,300.18 4030.28,306.61 4054.79,310.92 4078.43,315.10 4102.69,319.42 4138.30,325.71 4174.57,332.25 4210.76,338.70 4247.00,345.17 4294.93,353.64 4330.95,359.99 4379.45,368.67 4415.24,375.02 4451.39,381.47 4487.61,387.93 4523.65,394.32 4559.33,400.73 4595.77,407.13 4643.98,415.69 4679.92,422.09 4715.96,428.50 4751.95,434.94 4788.17,441.35 4823.99,447.67 4860.60,454.15 4896.85,460.55 4932.98,466.97 4981.26,475.55 5028.63,483.94 5065.40,490.47 5101.23,496.87 5125.04,501.11 5161.55,507.63 5209.64,516.17 5245.40,522.50 5281.88,528.95 5329.92,537.44 5377.81,545.97 5413.32,552.31 5450.21,558.90 5486.34,565.26 5534.52,573.78 5583.20,582.40 5619.05,588.71 5655.16,595.10 5691.51,601.61 5727.63,608.05 5776.11,616.54 5812.03,622.61 5860.56,630.25 5897.53,635.72 5945.45,642.35 5982.08,647.31 6018.96,652.25 6067.22,658.82 6103.41,663.74 6139.67,668.70 6176.47,673.66 6212.63,678.60 6236.71,681.85 6272.99,686.77 6310.10,691.77 6358.84,698.37 6395.14,703.29 6443.57,709.79 6480.03,714.73 6516.27,719.55 6552.96,724.54 6589.24,729.45 6625.44,734.39 6661.53,739.30 6686.31,742.57 6710.51,745.80 6734.62,749.06 6758.58,752.31 6782.86,755.61 6807.41,758.98 6843.77,763.89 6879.73,768.83 6915.75,773.71 6964.16,780.21 7000.62,785.08 7023.87,788.24 7060.75,793.23 7108.53,799.74 7133.22,803.15 7169.52,807.99 7205.75,812.88 7229.47,816.04 7254.40,819.43 7290.35,824.30 7326.41,829.18 7362.95,834.09 7398.65,838.81 7434.78,843.65 7471.23,848.60 7495.65,851.87 7519.19,855.05 7543.57,858.40 7567.75,861.73 7592.18,865.05 7616.37,868.28 7640.83,871.63 7664.79,874.89 7688.21,878.11 7713.30,881.46 7737.54,884.71 7761.42,887.88 7797.76,892.87 7822.46,896.18 7834.28,897.68 7858.42,900.99 7882.60,904.30 7906.84,907.59 7931.43,910.85 7955.56,914.13 7980.39,917.53 7991.54,919.04 8016.14,922.41 8040.00,925.63 8064.45,928.95 8088.73,932.21 8112.75,935.44 8137.07,938.64 8173.69,943.63 8197.32,946.85 8221.42,950.08 8258.14,955.02 8283.29,958.48 8306.61,961.64 8319.00,963.30 8331.24,964.98 8343.28,966.64 8379.75,971.56 8391.64,973.22 8416.44,976.53 8439.43,979.66 8474.34,984.36 8497.77,987.50 8510.60,989.20 8535.23,992.52 8558.64,995.72 8580.79,998.73 8587.79,999.64 8604.68,1001.93 8622.49,1004.30 8640.43,1006.69 8656.31,1008.84 8672.29,1010.96 8679.92,1011.99"/>
    </edge>
    <edge id="merge_zone_25" from="j_merge_start_25" to="j_merge_end_25" name="Merge zone 25" priority="-1" type="highway_merge" shape="987.21,61.62 1025.96,59.42 1077.40,56.59 1167.53,51.53">
        <lane id="merge_zone_25_0" index="0" speed="13.89" length="180.46" width="3.66" shape="986.69,52.48 1025.45,50.28 1076.89,47.45 1166.87,42.40"/>
        <lane id="merge_zone_25_1" index="1" speed="13.89" length="180.46" width="3.66" shape="986.90,56.14 1025.65,53.94 1077.10,51.11 1167.07,46.06"/>
        <lane id="merge_zone_25_2" index="2" speed="13.89" length="180.46" width="3.66" shape="987.11,59.79 1025.86,57.59 1077.30,54.76 1167.28,49.71"/>
    </edge>

    <junction id="j_merge_end_25" type="priority" x="1167.53" y="51.53" incLanes="merge_zone_25_0 merge_zone_25_1 merge_zone_25_2" intLanes=":j_merge_end_25_0_0 :j_merge_end_25_0_1 :j_merge_end_25_0_2" shape="1167.68,51.52 1167.27,44.21 1166.77,40.58 1167.38,51.54">
        <request index="0" response="110" foes="110" cont="0"/>
        <request index="1" response="000" foes="001" cont="0"/>
        <request index="2" response="000" foes="001" cont="0"/>
    </junction>
    <junction id="j_merge_start_25" type="priority" x="897.54" y="66.71" incLanes="374.0_0 382.0_0 382.0_1" intLanes=":j_merge_start_25_0_0 :j_merge_start_25_1_0 :j_merge_start_25_1_1" shape="987.21,61.62 986.59,50.66 973.03,51.61 957.85,52.86 941.86,54.15 925.87,55.21 910.70,55.77 897.13,55.57 896.94,59.23 897.13,59.40 897.54,66.71">
        <request index="0" response="000" foes="000" cont="0"/>
        <request index="1" response="000" foes="000" cont="0"/>
        <request index="2" response="000" foes="000" cont="0"/>
    </junction>
    <junction id="junction_81" type="dead_end" x="0.17" y="113.62" incLanes="" intLanes="" shape="0.95,117.28 0.53,109.98 0.52,109.84 -0.01,106.22"/>
    <junction id="junction_82" type="dead_end" x="8679.67" y="1013.80" incLanes="385.0_0 385.0_1 385.0_2" intLanes="" shape="8680.65,1006.55 8679.67,1013.80"/>
    <junction id="node_364_end" type="priority" x="521.53" y="87.91" incLanes="364.0_0 364.0_1 364.0_2" intLanes=":node_364_end_0_0 :node_364_end_0_1" shape="521.68,87.90 521.27,80.59 520.98,80.61 521.38,87.92">
        <request index="0" response="00" foes="00" cont="0"/>
        <request index="1" response="00" foes="00" cont="0"/>
    </junction>
    <junction id="node_364_start" type="priority" x="82.67" y="112.51" incLanes="363.0_0 363.0_1" intLanes=":node_364_start_0_0 :node_364_start_0_1" shape="84.16,112.43 83.75,105.12 80.74,105.29 81.18,112.60">
        <request index="0" response="00" foes="00" cont="0"/>
        <request index="1" response="00" foes="00" cont="0"/>
    </junction>
    <junction id="node_368_end" type="priority" x="835.84" y="70.26" incLanes="368.0_0 368.0_1 368.0_2" intLanes=":node_368_end_0_0 :node_368_end_0_1" shape="837.34,70.17 836.92,62.86 833.93,63.04 834.34,70.34">
        <request index="0" response="00" foes="00" cont="0"/>
        <request index="1" response="00" foes="00" cont="0"/>
    </junction>
    <junction id="node_368_start" type="priority" x="632.92" y="81.68" incLanes="375.0_0 375.0_1 375.0_2" intLanes=":node_368_start_0_0 :node_368_start_0_1" shape="633.07,81.67 632.66,74.36 632.36,74.38 632.77,81.69">
        <request index="0" response="00" foes="00" cont="0"/>