<?xml version='1.0' encoding='utf-8'?>
<connections>
    <connection from="453.0" to="merge_zone_29" fromLane="0" toLane="0" />
    <connection from="merge_zone_29" to="464.0" fromLane="0" toLane="2" dir="r" state="m" />
</connections>