<?xml version="1.0" encoding="UTF-8"?>

<!-- generated on 2025-10-19 17:35:17 by Eclipse SUMO netconvert Version 1.23.1
<netconvertConfiguration xmlns:xsi="http://www.w3.org/2001/XMLSchema-instance" xsi:noNamespaceSchemaLocation="http://sumo.dlr.de/xsd/netconvertConfiguration.xsd">

    <input>
        <node-files value="/home/sdai/harry/TeraSim/jupiter/eb/jupiter_eb_tiles/tile_0078/tile_0078.nod.xml"/>
        <edge-files value="/home/sdai/harry/TeraSim/jupiter/eb/jupiter_eb_tiles/tile_0078/tile_0078.edg.xml"/>
        <connection-files value="/home/sdai/harry/TeraSim/jupiter/eb/jupiter_eb_tiles/tile_0078/tile_0078.con.xml"/>
    </input>

    <output>
        <output-file value="/home/sdai/harry/TeraSim/jupiter/eb/jupiter_eb_tiles/tile_0078/tile_0078.net.xml"/>
        <output.street-names value="true"/>
        <output.original-names value="true"/>
    </output>

    <processing>
        <geometry.remove value="false"/>
        <geometry.min-dist value="0.5"/>
        <edges.join value="false"/>
    </processing>

    <junctions>
        <no-internal-links value="false"/>
        <no-turnarounds value="true"/>
        <junctions.join value="true"/>
        <junctions.join-dist value="10"/>
        <junctions.corner-detail value="5"/>
        <junctions.internal-link-detail value="5"/>
        <junctions.limit-turn-speed value="5.5"/>
        <rectangular-lane-cut value="true"/>
        <check-lane-foes.all value="true"/>
    </junctions>

</netconvertConfiguration>
-->

<net version="1.20" junctionCornerDetail="5" junctionLinkDetail="5" rectangularLaneCut="true" limitTurnSpeed="5.50" checkLaneFoesAll="1" xmlns:xsi="http://www.w3.org/2001/XMLSchema-instance" xsi:noNamespaceSchemaLocation="http://sumo.dlr.de/xsd/net_file.xsd">

    <location netOffset="-683786.40,-3286267.64" convBoundary="0.00,0.00,9000.64,616.08" origBoundary="0.00,0.00,692787.04,3286883.72" projParameter="!"/>

    <edge id=":j_merge_end_29_0" function="internal">
        <lane id=":j_merge_end_29_0_0" index="0" speed="13.89" length="35.55" width="3.66" shape="444.46,432.70 454.03,434.24 461.59,437.10 469.16,439.95 478.73,441.50"/>
    </edge>
    <edge id=":j_merge_start_29_0" function="internal">
        <lane id=":j_merge_start_29_0_0" index="0" speed="13.89" length="65.18" width="3.66" shape="301.56,427.03 366.69,429.58"/>
    </edge>

    <edge id="453.0" from="node_453_start" to="j_merge_start_29" priority="-1" type="town" shape="0.00,381.99 17.27,384.81 74.74,395.36 105.61,401.08 143.15,407.91 164.70,412.02 179.38,414.51 202.32,418.39 217.74,420.56 235.28,422.91 251.77,424.69 262.19,425.73 275.18,426.88 288.84,427.98 301.43,428.86">
        <lane id="453.0_0" index="0" speed="13.89" length="305.10" width="3.66" shape="0.29,380.18 17.58,383.01 75.07,393.56 105.94,399.28 143.49,406.11 165.02,410.22 179.69,412.71 202.60,416.58 217.99,418.75 235.50,421.09 251.96,422.87 262.36,423.91 275.33,425.06 288.98,426.16 301.56,427.03"/>
    </edge>
    <edge id="464.0" from="j_merge_end_29" to="junction_87" priority="-1" type="town" shape="478.65,443.33 492.70,443.91 507.97,444.58 522.27,445.18 534.11,445.69 543.79,446.07 555.57,446.55 566.88,447.04 583.18,447.76 600.34,448.42 616.11,449.03 631.72,449.69 649.04,450.38 662.70,450.95 676.11,451.47 689.33,452.06 701.10,452.56 715.25,453.14 730.61,453.79 743.26,454.33 758.17,454.96 768.31,455.41 776.91,455.77 786.20,456.20 796.12,456.61 806.37,457.03 814.80,457.39 823.21,457.71 833.83,458.18 842.77,458.50 851.48,458.83 861.13,459.20 878.35,459.90 889.00,460.29 898.80,460.67 908.10,461.02 920.38,461.50 931.27,461.96 945.07,462.51 956.84,462.97 967.83,463.42 978.97,463.86 989.70,464.31 1000.66,464.80 1012.47,465.28 1025.93,465.84 1038.59,466.38 1050.24,466.88 1061.82,467.37 1075.34,467.96 1087.39,468.44 1098.26,468.91 1113.12,469.54 1125.77,470.08 1144.13,470.86 1160.12,471.49 1174.79,472.15 1189.93,472.80 1206.55,473.54 1221.62,474.22 1232.76,474.77 1244.14,475.26 1255.47,475.83 1266.97,476.38 1282.64,477.14 1294.70,477.70 1309.15,478.37 1311.90,478.47 1336.60,479.63 1355.92,480.54 1375.27,481.46 1393.67,482.29 1409.25,483.03 1424.66,483.78 1447.27,484.85 1462.40,485.58 1479.28,486.41 1493.92,487.10 1510.60,487.88 1523.30,488.47 1543.61,489.48 1565.68,490.46 1589.76,491.60 1615.31,492.83 1642.84,494.18 1668.86,495.42 1700.32,496.94 1723.22,498.00 1748.51,499.26 1773.71,500.42 1794.90,501.43 1818.75,502.59 1839.99,503.63 1861.07,504.67 1891.29,506.13 1921.01,507.58 1941.20,508.48 1957.34,509.26 1980.10,510.33 2009.09,511.69 2034.71,512.94 2058.14,514.10 2080.82,515.19 2101.43,516.17 2126.47,517.27 2154.53,518.55 2176.98,519.62 2195.20,520.45 2217.45,521.58 2236.65,522.50 2254.52,523.34 2275.69,524.35 2294.93,525.30 2318.46,526.44 2341.81,527.60 2360.67,528.51 2377.95,529.33 2397.92,530.30 2417.67,531.24 2435.75,532.11 2454.69,532.97 2474.43,533.86 2493.45,534.77 2513.25,535.73 2538.65,536.97 2564.03,538.28 2587.19,539.36 2615.12,540.68 2628.36,541.29 2649.61,542.26 2675.56,543.52 2699.13,544.66 2733.86,546.30 2760.09,547.55 2794.77,549.31 2813.19,550.22 2835.56,551.31 2863.46,552.66 2891.49,553.97 2923.32,555.47 2955.37,556.96 2975.29,557.93 3004.21,559.23 3028.57,560.41 3061.64,561.99 3097.08,563.71 3124.94,565.08 3153.15,566.39 3182.87,567.80 3206.14,568.90 3234.73,570.28 3261.90,571.54 3278.23,572.36 3298.04,573.28 3319.48,574.32 3343.67,575.48 3358.28,576.16 3379.95,577.18 3404.64,578.32 3432.44,579.66 3459.93,580.94 3491.02,582.46 3509.85,583.34 3535.07,584.59 3565.49,586.01 3599.14,587.62 3620.90,588.64 3635.11,589.36 3648.95,590.03 3661.85,590.67 3678.43,591.49 3691.59,592.11 3707.38,592.89 3728.45,593.87 3745.83,594.71 3760.67,595.41 3782.08,596.45 3800.88,597.37 3821.23,598.31 3837.55,599.08 3857.15,599.99 3877.26,600.97 3899.09,602.00 3923.45,603.20 3947.77,604.34 3971.66,605.47 3993.35,606.49 4018.06,607.70 4044.65,608.94 4075.68,610.44 4103.31,611.76 4132.84,613.25 4144.52,613.73 4167.56,614.59 4191.63,615.36 4207.35,615.72 4227.33,616.04 4238.86,616.08 4253.97,616.03 4263.77,615.99 4281.53,615.58 4294.34,615.24 4308.09,614.75 4320.01,614.19 4334.82,613.53 4351.95,612.59 4368.54,611.61 4381.98,610.84 4392.44,610.15 4404.67,609.36 4424.28,608.05 4444.47,606.77 4467.17,605.32 4482.50,604.31 4500.52,603.16 4523.07,601.73 4552.09,599.87 4575.83,598.41 4602.08,596.73 4621.90,595.51 4650.82,593.71 4667.81,592.60 4691.50,591.17 4713.34,589.81 4735.47,588.43 4753.46,587.35 4768.63,586.40 4784.20,585.38 4800.38,584.40 4813.06,583.60 4830.12,582.50 4849.66,581.29 4866.35,580.26 4882.82,579.22 4899.32,578.23 4921.40,576.86 4947.98,575.17 4975.97,573.42 4998.27,572.02 5022.24,570.49 5049.84,568.75 5076.81,567.04 5103.65,565.34 5131.57,563.60 5160.48,561.74 5192.63,559.75 5220.94,557.91 5254.40,555.87 5279.92,554.24 5306.51,552.59 5323.60,551.53 5350.67,549.85 5381.70,547.92 5402.53,546.60 5427.99,544.98 5460.43,542.92 5488.13,541.20 5523.27,539.08 5561.11,536.73 5595.04,534.58 5629.34,532.48 5659.87,530.64 5682.39,529.19 5713.18,527.28 5745.07,525.24 5774.20,523.41 5799.86,521.78 5835.75,519.48 5867.29,517.52 5899.26,515.46 5924.49,513.92 5948.24,512.39 5985.63,510.08 6015.37,508.31 6043.39,506.53 6066.61,504.94 6085.08,503.51 6107.35,501.50 6133.70,498.92 6154.73,496.57 6168.26,494.95 6183.28,493.01 6201.10,490.60 6213.95,488.77 6227.70,486.65 6241.97,484.40 6254.19,482.36 6269.90,479.61 6283.96,477.08 6297.36,474.68 6312.95,471.82 6323.29,469.94 6333.91,468.00 6347.54,465.48 6362.38,462.80 6377.57,460.01 6387.34,458.23 6404.93,455.05 6423.77,451.62 6438.34,449.02 6449.95,446.92 6461.52,444.83 6471.68,443.00 6485.22,440.56 6495.53,438.70 6505.42,436.91 6518.54,434.53 6531.14,432.25 6544.16,429.91 6561.29,426.81 6576.16,424.17 6598.33,420.18 6614.74,417.23 6628.35,414.72 6644.85,411.75 6658.49,409.28 6672.33,406.76 6688.99,403.76 6701.99,401.40 6714.90,399.09 6731.99,396.07 6744.99,393.64 6755.80,391.76 6768.94,389.35 6782.07,386.97 6795.37,384.55 6816.77,380.66 6834.17,377.51 6852.18,374.30 6867.41,371.50 6884.01,368.56 6898.58,365.93 6913.16,363.30 6927.18,360.74 6939.79,358.43 6955.04,355.71 6965.74,353.77 6981.84,350.89 6995.29,348.44 7011.08,345.59 7027.14,342.68 7038.53,340.62 7050.53,338.43 7063.37,336.18 7078.41,333.42 7089.70,331.41 7102.88,329.08 7114.95,326.86 7127.35,324.64 7139.71,322.43 7152.36,320.10 7164.93,317.87 7178.63,315.35 7191.64,313.04 7201.01,311.34 7213.66,309.03 7225.84,306.81 7236.94,304.83 7250.13,302.43 7263.38,300.05 7275.00,297.98 7287.84,295.60 7300.89,293.28 7317.10,290.41 7331.17,287.89 7344.88,285.41 7355.51,283.51 7368.23,281.20 7378.10,279.43 7390.49,277.25 7400.65,275.38 7412.75,273.20 7429.13,270.29 7444.07,267.55 7456.04,265.42 7468.94,263.07 7483.05,260.55 7498.09,257.79 7510.89,255.50 7527.82,252.43 7545.02,249.27 7559.05,246.77 7576.47,243.60 7592.17,240.81 7605.87,238.28 7623.06,235.19 7643.75,231.52 7660.43,228.52 7674.21,226.07 7689.16,223.36 7703.52,220.76 7724.85,216.85 7740.47,214.06 7756.87,211.10 7781.69,206.59 7804.79,202.45 7823.28,199.14 7839.98,196.10 7855.74,193.28 7869.75,190.74 7887.43,187.54 7900.98,185.08 7915.45,182.49 7927.24,180.34 7945.92,176.98 7959.04,174.62 7969.25,172.74 7974.69,171.81 7988.03,169.38 8005.79,166.16 8028.26,162.11 8046.42,158.85 8063.79,155.73 8075.48,153.61 8088.54,151.26 8105.94,148.16 8122.38,145.19 8139.00,142.19 8154.04,139.45 8169.26,136.70 8185.78,133.72 8202.95,130.62 8217.48,128.00 8233.36,125.13 8248.14,122.46 8264.43,119.52 8281.75,116.40 8295.80,113.85 8304.39,112.30 8317.01,110.02 8331.00,107.49 8346.96,104.61 8359.21,102.42 8374.63,99.68 8384.09,97.97 8392.52,96.44 8402.09,94.73 8413.21,92.72 8426.01,90.42 8442.30,87.50 8455.23,85.18 8464.92,83.41 8475.74,81.45 8483.92,79.98 8499.04,77.23 8513.48,74.64 8521.98,73.13 8534.95,70.80 8547.56,68.52 8556.04,67.00 8570.10,64.44 8585.70,61.63 8597.58,59.50 8610.41,57.18 8623.61,54.77 8635.52,52.63 8652.69,49.54 8662.41,47.80 8676.20,45.36 8689.83,42.93 8700.75,41.01 8711.37,39.14 8722.90,37.11 8733.84,35.16 8743.77,33.41 8758.85,30.75 8766.50,29.41 8776.60,27.61 8786.59,25.85 8794.47,24.47 8808.09,22.14 8823.33,19.61 8835.24,17.68 8849.75,15.47 8865.54,13.16 8875.42,11.82 8886.06,10.46 8901.22,8.64 8916.41,6.92 8932.60,5.23 8948.23,3.81 8966.63,2.31 8986.56,0.89 9000.64,0.00">
        <lane id="464.0_0" index="0" disallow="all" speed="13.89" length="8572.82" width="3.66" shape="479.03,434.19 493.09,434.77 508.36,435.44 522.66,436.04 534.49,436.55 544.16,436.93 555.95,437.41 567.28,437.90 583.56,438.62 600.69,439.28 616.48,439.89 632.09,440.55 649.41,441.24 663.07,441.81 676.49,442.33 689.73,442.92 701.48,443.42 715.63,444.00 731.00,444.65 743.65,445.19 758.56,445.82 768.71,446.27 777.31,446.63 786.60,447.06 796.50,447.47 806.75,447.89 815.17,448.25 823.59,448.57 834.20,449.04 843.11,449.36 851.83,449.69 861.49,450.06 878.71,450.76 889.34,451.15 899.15,451.53 908.45,451.88 920.75,452.36 931.64,452.82 945.43,453.37 957.21,453.83 968.20,454.28 979.34,454.72 990.10,455.17 1001.05,455.66 1012.85,456.14 1026.31,456.70 1038.98,457.24 1050.63,457.74 1062.21,458.23 1075.72,458.82 1087.77,459.30 1098.65,459.77 1113.51,460.40 1126.16,460.94 1144.51,461.72 1160.50,462.35 1175.19,463.01 1190.33,463.66 1206.96,464.40 1222.05,465.08 1233.18,465.63 1244.57,466.12 1255.92,466.69 1267.41,467.24 1283.08,468.00 1295.12,468.56 1309.56,469.23 1312.28,469.33 1337.03,470.49 1356.35,471.40 1375.69,472.32 1394.09,473.15 1409.69,473.89 1425.10,474.64 1447.71,475.71 1462.85,476.44 1479.72,477.27 1494.35,477.96 1511.03,478.74 1523.74,479.33 1544.04,480.34 1566.10,481.32 1590.20,482.46 1615.75,483.69 1643.28,485.04 1669.30,486.28 1700.75,487.80 1723.66,488.86 1748.95,490.12 1774.14,491.28 1795.34,492.29 1819.20,493.45 1840.44,494.49 1861.52,495.53 1891.73,496.99 1921.44,498.44 1941.62,499.34 1957.77,500.12 1980.53,501.19 2009.53,502.55 2035.16,503.80 2058.59,504.96 2081.26,506.05 2101.85,507.03 2126.88,508.13 2154.96,509.41 2177.41,510.48 2195.64,511.31 2217.90,512.44 2237.08,513.36 2254.95,514.20 2276.13,515.21 2295.38,516.16 2318.91,517.30 2342.26,518.46 2361.11,519.37 2378.39,520.19 2398.36,521.16 2418.11,522.10 2436.18,522.97 2455.10,523.83 2474.85,524.72 2493.89,525.63 2513.69,526.59 2539.11,527.83 2564.48,529.14 2587.62,530.22 2615.55,531.54 2628.78,532.15 2650.04,533.12 2676.00,534.38 2699.57,535.52 2734.29,537.16 2760.54,538.41 2795.23,540.17 2813.64,541.08 2836.00,542.17 2863.89,543.52 2891.92,544.83 2923.75,546.33 2955.80,547.82 2975.72,548.79 3004.64,550.09 3029.01,551.27 3062.08,552.85 3097.53,554.57 3125.38,555.94 3153.58,557.25 3183.30,558.66 3206.58,559.76 3235.16,561.14 3262.34,562.40 3278.67,563.22 3298.47,564.14 3319.92,565.18 3344.10,566.34 3358.71,567.02 3380.38,568.04 3405.07,569.18 3432.87,570.52 3460.37,571.80 3491.46,573.32 3510.29,574.20 3535.51,575.45 3565.92,576.87 3599.57,578.48 3621.34,579.50 3635.56,580.22 3649.40,580.89 3662.30,581.53 3678.87,582.35 3692.03,582.97 3707.82,583.75 3728.88,584.73 3746.27,585.57 3761.11,586.27 3782.53,587.31 3801.31,588.23 3821.66,589.17 3837.98,589.94 3857.59,590.85 3877.70,591.83 3899.53,592.86 3923.89,594.06 3948.20,595.20 3972.09,596.33 3993.79,597.35 4018.50,598.56 4045.08,599.80 4076.12,601.30 4103.76,602.62 4133.26,604.11 4144.87,604.59 4167.88,605.45 4191.88,606.21 4207.53,606.57 4227.42,606.89 4238.86,606.93 4253.94,606.88 4263.65,606.84 4281.31,606.43 4294.06,606.09 4307.71,605.61 4319.59,605.05 4334.37,604.39 4351.43,603.45 4368.01,602.48 4381.42,601.71 4391.84,601.02 4404.07,600.23 4423.69,598.92 4443.89,597.64 4466.58,596.19 4481.91,595.18 4499.94,594.03 4522.49,592.60 4551.52,590.74 4575.26,589.28 4601.51,587.60 4621.33,586.38 4650.24,584.58 4667.24,583.47 4690.94,582.04 4712.77,580.68 4734.91,579.30 4752.90,578.22 4768.04,577.27 4783.62,576.25 4799.82,575.27 4812.48,574.47 4829.54,573.37 4849.10,572.16 4865.78,571.13 4882.26,570.09 4898.76,569.10 4920.83,567.73 4947.40,566.04 4975.40,564.29 4997.69,562.89 5021.66,561.36 5049.26,559.62 5076.23,557.91 5103.08,556.21 5130.99,554.47 5159.90,552.61 5192.05,550.62 5220.36,548.78 5253.83,546.74 5279.35,545.11 5305.94,543.46 5323.03,542.40 5350.10,540.72 5381.13,538.79 5401.95,537.47 5427.41,535.85 5459.86,533.79 5487.57,532.07 5522.71,529.95 5560.54,527.60 5594.47,525.45 5628.78,523.35 5659.30,521.51 5681.81,520.06 5712.60,518.15 5744.49,516.11 5773.62,514.28 5799.28,512.65 5835.17,510.35 5866.71,508.39 5898.69,506.33 5923.92,504.79 5947.67,503.26 5985.07,500.95 6014.81,499.18 6042.79,497.40 6065.94,495.81 6084.32,494.39 6106.49,492.39 6132.75,489.82 6153.68,487.48 6167.13,485.87 6182.08,483.94 6199.85,481.54 6212.61,479.72 6226.29,477.61 6240.50,475.37 6252.65,473.34 6268.30,470.60 6282.34,468.07 6295.73,465.68 6311.30,462.82 6321.65,460.94 6332.25,459.00 6345.90,456.48 6360.74,453.80 6375.92,451.01 6385.71,449.23 6403.30,446.05 6422.14,442.62 6436.72,440.01 6448.32,437.92 6459.90,435.83 6470.06,433.99 6483.60,431.56 6493.90,429.70 6503.79,427.91 6516.91,425.53 6529.52,423.25 6542.54,420.91 6559.67,417.80 6574.55,415.16 6596.71,411.17 6613.10,408.23 6626.71,405.72 6643.22,402.75 6656.86,400.28 6670.70,397.76 6687.36,394.76 6700.37,392.40 6713.30,390.08 6730.35,387.07 6743.37,384.64 6754.19,382.75 6767.30,380.35 6780.43,377.97 6793.73,375.55 6815.14,371.66 6832.55,368.50 6850.55,365.30 6865.78,362.50 6882.40,359.55 6896.96,356.93 6911.53,354.30 6925.53,351.74 6938.16,349.43 6953.42,346.70 6964.12,344.76 6980.22,341.89 6993.66,339.44 7009.45,336.59 7025.51,333.68 7036.89,331.62 7048.92,329.42 7061.75,327.17 7076.78,324.42 7088.10,322.40 7101.26,320.08 7113.32,317.86 7125.74,315.63 7138.08,313.43 7150.73,311.10 7163.30,308.87 7177.00,306.35 7190.03,304.03 7199.37,302.34 7212.02,300.03 7224.22,297.81 7235.32,295.83 7248.50,293.43 7261.77,291.04 7273.36,288.98 7286.21,286.60 7299.29,284.27 7315.50,281.40 7329.55,278.88 7343.26,276.40 7353.89,274.51 7366.60,272.20 7376.50,270.42 7388.87,268.24 7399.01,266.38 7411.14,264.19 7427.51,261.29 7442.44,258.55 7454.42,256.41 7467.32,254.07 7481.42,251.55 7496.46,248.79 7509.27,246.50 7526.18,243.43 7543.39,240.27 7557.43,237.77 7574.85,234.59 7590.54,231.81 7604.23,229.28 7621.45,226.18 7642.14,222.51 7658.82,219.51 7672.59,217.06 7687.53,214.36 7701.88,211.76 7723.22,207.85 7738.85,205.05 7755.24,202.10 7780.06,197.59 7803.18,193.44 7821.66,190.14 7838.35,187.10 7854.12,184.27 7868.12,181.74 7885.80,178.54 7899.36,176.08 7913.82,173.49 7925.61,171.34 7944.30,167.97 7957.40,165.62 7967.63,163.73 7973.10,162.80 7986.39,160.38 8004.16,157.16 8026.64,153.10 8044.80,149.84 8062.17,146.73 8073.85,144.61 8086.93,142.25 8104.32,139.15 8120.75,136.19 8137.37,133.19 8152.41,130.45 8167.63,127.70 8184.15,124.72 8201.33,121.62 8215.85,119.00 8231.73,116.13 8246.51,113.46 8262.81,110.52 8280.12,107.40 8294.17,104.85 8302.76,103.30 8315.38,101.02 8329.37,98.49 8345.34,95.60 8357.61,93.41 8373.02,90.67 8382.46,88.97 8390.90,87.43 8400.47,85.72 8411.59,83.72 8424.39,81.41 8440.68,78.49 8453.60,76.18 8463.28,74.41 8474.11,72.45 8482.29,70.98 8497.41,68.23 8511.87,65.63 8520.37,64.12 8533.33,61.80 8545.94,59.52 8554.41,58.00 8568.47,55.44 8584.08,52.62 8595.96,50.49 8608.77,48.18 8621.98,45.77 8633.90,43.62 8651.07,40.53 8660.81,38.79 8674.60,36.35 8688.23,33.92 8699.16,32.00 8709.78,30.13 8721.30,28.10 8732.24,26.15 8742.18,24.40 8757.26,21.74 8764.91,20.40 8775.00,18.60 8785.01,16.84 8792.91,15.45 8806.57,13.12 8821.85,10.58 8833.82,8.64 8848.40,6.42 8864.26,4.10 8874.23,2.75 8884.93,1.38 8900.16,-0.45 8915.42,-2.18 8931.71,-3.88 8947.44,-5.31 8965.93,-6.81 8985.95,-8.24 9000.06,-9.13" type="shoulder"/>
        <lane id="464.0_1" index="1" speed="13.89" length="8572.82" width="3.66" shape="478.88,437.84 492.93,438.42 508.21,439.10 522.50,439.69 534.34,440.20 544.01,440.58 555.80,441.06 567.12,441.56 583.41,442.27 600.55,442.93 616.33,443.54 631.94,444.20 649.26,444.89 662.92,445.46 676.34,445.98 689.57,446.58 701.33,447.07 715.48,447.65 730.84,448.30 743.49,448.84 758.41,449.48 768.55,449.93 777.15,450.29 786.44,450.72 796.35,451.12 806.60,451.54 815.02,451.90 823.44,452.22 834.05,452.69 842.97,453.01 851.69,453.34 861.35,453.71 878.56,454.41 889.21,454.80 899.01,455.18 908.31,455.53 920.60,456.01 931.49,456.47 945.29,457.02 957.06,457.48 968.05,457.93 979.19,458.37 989.94,458.83 1000.89,459.31 1012.70,459.79 1026.16,460.35 1038.82,460.90 1050.47,461.39 1062.06,461.89 1075.57,462.47 1087.62,462.95 1098.49,463.43 1113.35,464.05 1126.00,464.59 1144.36,465.37 1160.35,466.00 1175.03,466.67 1190.17,467.32 1206.80,468.06 1221.88,468.74 1233.01,469.29 1244.40,469.78 1255.74,470.35 1267.23,470.90 1282.90,471.66 1294.95,472.22 1309.40,472.89 1312.13,472.98 1336.86,474.15 1356.18,475.06 1375.52,475.98 1393.92,476.81 1409.51,477.55 1424.92,478.30 1447.53,479.37 1462.67,480.10 1479.54,480.93 1494.18,481.62 1510.86,482.40 1523.57,482.99 1543.87,484.00 1565.93,484.98 1590.02,486.12 1615.58,487.35 1643.11,488.70 1669.12,489.94 1700.58,491.46 1723.48,492.52 1748.77,493.78 1773.97,494.94 1795.16,495.95 1819.02,497.11 1840.26,498.15 1861.34,499.19 1891.56,500.65 1921.27,502.10 1941.45,503.00 1957.60,503.78 1980.36,504.85 2009.35,506.21 2034.98,507.46 2058.41,508.62 2081.08,509.71 2101.68,510.69 2126.72,511.79 2154.79,513.07 2177.24,514.14 2195.46,514.97 2217.72,516.10 2236.91,517.02 2254.78,517.86 2275.96,518.87 2295.20,519.82 2318.73,520.96 2342.08,522.12 2360.93,523.03 2378.21,523.85 2398.18,524.82 2417.93,525.76 2436.01,526.63 2454.94,527.49 2474.68,528.38 2493.71,529.29 2513.52,530.25 2538.93,531.49 2564.30,532.80 2587.45,533.88 2615.38,535.20 2628.61,535.81 2649.87,536.78 2675.83,538.04 2699.39,539.18 2734.12,540.82 2760.36,542.07 2795.05,543.83 2813.46,544.74 2835.83,545.83 2863.72,547.18 2891.75,548.49 2923.58,549.99 2955.63,551.48 2975.55,552.45 3004.47,553.75 3028.83,554.93 3061.90,556.51 3097.35,558.23 3125.20,559.60 3153.41,560.91 3183.13,562.32 3206.40,563.42 3234.99,564.80 3262.16,566.06 3278.49,566.88 3298.30,567.80 3319.74,568.84 3343.93,570.00 3358.54,570.68 3380.21,571.70 3404.90,572.84 3432.70,574.18 3460.19,575.46 3491.28,576.98 3510.12,577.86 3535.33,579.11 3565.75,580.53 3599.40,582.14 3621.17,583.16 3635.38,583.88 3649.22,584.55 3662.12,585.19 3678.70,586.01 3691.86,586.63 3707.64,587.41 3728.71,588.39 3746.09,589.23 3760.93,589.93 3782.35,590.97 3801.14,591.89 3821.49,592.83 3837.81,593.60 3857.41,594.51 3877.52,595.49 3899.35,596.52 3923.71,597.72 3948.03,598.86 3971.92,599.99 3993.61,601.01 4018.32,602.22 4044.91,603.46 4075.94,604.96 4103.58,606.28 4133.09,607.77 4144.73,608.24 4167.75,609.10 4191.78,609.87 4207.46,610.23 4227.38,610.55 4238.86,610.59 4253.95,610.54 4263.70,610.50 4281.40,610.09 4294.17,609.75 4307.86,609.26 4319.76,608.71 4334.55,608.05 4351.64,607.11 4368.22,606.13 4381.65,605.36 4392.08,604.67 4404.31,603.88 4423.92,602.57 4444.12,601.29 4466.82,599.84 4482.15,598.83 4500.17,597.68 4522.72,596.25 4551.75,594.39 4575.49,592.93 4601.74,591.25 4621.56,590.03 4650.47,588.23 4667.47,587.12 4691.16,585.69 4713.00,584.33 4735.13,582.95 4753.12,581.87 4768.28,580.92 4783.85,579.90 4800.04,578.92 4812.71,578.12 4829.77,577.02 4849.32,575.81 4866.01,574.78 4882.48,573.74 4898.98,572.75 4921.06,571.38 4947.63,569.69 4975.63,567.94 4997.92,566.54 5021.89,565.01 5049.49,563.27 5076.46,561.56 5103.31,559.86 5131.22,558.12 5160.13,556.26 5192.28,554.27 5220.59,552.43 5254.06,550.39 5279.58,548.76 5306.17,547.11 5323.26,546.05 5350.33,544.37 5381.36,542.44 5402.18,541.12 5427.64,539.50 5460.09,537.44 5487.80,535.72 5522.93,533.60 5560.77,531.25 5594.70,529.10 5629.01,527.00 5659.53,525.16 5682.04,523.71 5712.83,521.80 5744.72,519.76 5773.85,517.93 5799.51,516.30 5835.40,514.00 5866.94,512.04 5898.92,509.98 5924.15,508.44 5947.90,506.91 5985.30,504.60 6015.03,502.83 6043.03,501.05 6066.21,499.46 6084.62,498.04 6106.84,496.03 6133.13,493.46 6154.10,491.12 6167.58,489.50 6182.56,487.57 6200.35,485.16 6213.14,483.34 6226.85,481.23 6241.09,478.98 6253.26,476.95 6268.94,474.20 6282.99,471.68 6296.38,469.28 6311.96,466.42 6322.31,464.54 6332.92,462.60 6346.55,460.08 6361.40,457.40 6376.58,454.61 6386.36,452.83 6403.95,449.65 6422.79,446.22 6437.37,443.62 6448.97,441.52 6460.55,439.43 6470.71,437.60 6484.25,435.16 6494.55,433.30 6504.44,431.51 6517.56,429.13 6530.17,426.85 6543.19,424.51 6560.32,421.41 6575.19,418.77 6597.36,414.78 6613.76,411.83 6627.37,409.32 6643.87,406.35 6657.51,403.88 6671.35,401.36 6688.01,398.36 6701.02,396.00 6713.94,393.68 6731.01,390.67 6744.02,388.24 6754.83,386.36 6767.96,383.95 6781.09,381.57 6794.39,379.15 6815.79,375.26 6833.20,372.11 6851.20,368.90 6866.43,366.10 6883.04,363.16 6897.61,360.53 6912.18,357.90 6926.19,355.34 6938.81,353.03 6954.07,350.31 6964.77,348.37 6980.87,345.49 6994.31,343.04 7010.10,340.19 7026.16,337.28 7037.55,335.22 7049.56,333.03 7062.40,330.78 7077.43,328.02 7088.74,326.00 7101.91,323.68 7113.97,321.46 7126.38,319.24 7138.73,317.03 7151.38,314.70 7163.95,312.47 7177.65,309.95 7190.67,307.64 7200.03,305.94 7212.67,303.63 7224.87,301.41 7235.97,299.43 7249.15,297.03 7262.41,294.65 7274.02,292.58 7286.86,290.20 7299.93,287.87 7316.14,285.00 7330.20,282.49 7343.91,280.01 7354.54,278.11 7367.25,275.80 7377.14,274.02 7389.52,271.85 7399.67,269.98 7411.78,267.80 7428.16,264.89 7443.09,262.15 7455.07,260.02 7467.97,257.67 7482.07,255.15 7497.11,252.39 7509.92,250.10 7526.83,247.03 7544.04,243.87 7558.08,241.37 7575.50,238.20 7591.19,235.41 7604.89,232.88 7622.10,229.79 7642.79,226.12 7659.46,223.12 7673.24,220.67 7688.18,217.96 7702.53,215.36 7723.87,211.45 7739.50,208.66 7755.89,205.70 7780.71,201.19 7803.82,197.05 7822.31,193.74 7839.00,190.70 7854.77,187.88 7868.77,185.34 7886.45,182.14 7900.01,179.68 7914.47,177.09 7926.26,174.94 7944.95,171.58 7958.06,169.22 7968.28,167.34 7973.74,166.40 7987.05,163.98 8004.81,160.76 8027.29,156.71 8045.45,153.45 8062.82,150.33 8074.50,148.21 8087.57,145.86 8104.97,142.76 8121.40,139.79 8138.02,136.79 8153.06,134.05 8168.28,131.30 8184.80,128.32 8201.98,125.22 8216.50,122.60 8232.38,119.73 8247.16,117.06 8263.46,114.12 8280.77,111.00 8294.82,108.45 8303.41,106.90 8316.03,104.62 8330.02,102.09 8345.99,99.21 8358.25,97.02 8373.66,94.28 8383.11,92.57 8391.55,91.04 8401.12,89.33 8412.24,87.32 8425.04,85.02 8441.33,82.10 8454.25,79.78 8463.94,78.01 8474.76,76.05 8482.94,74.58 8498.06,71.83 8512.51,69.24 8521.01,67.73 8533.98,65.40 8546.59,63.12 8555.06,61.60 8569.12,59.04 8584.73,56.23 8596.61,54.10 8609.43,51.78 8622.63,49.37 8634.55,47.23 8651.72,44.14 8661.45,42.39 8675.24,39.95 8688.87,37.52 8699.80,35.60 8710.42,33.73 8721.94,31.70 8732.88,29.75 8742.82,28.00 8757.90,25.34 8765.54,24.00 8775.64,22.20 8785.64,20.44 8793.54,19.06 8807.18,16.73 8822.44,14.19 8834.39,12.26 8848.94,10.04 8864.77,7.72 8874.70,6.38 8885.38,5.01 8900.58,3.19 8915.82,1.46 8932.07,-0.23 8947.76,-1.66 8966.21,-3.16 8986.19,-4.59 9000.29,-5.48"/>