<?xml version='1.0' encoding='utf-8'?>
<nodes>
    <node id="node_680_start" x="765775.1264661222" y="3294765.2045900016" type="priority" />
    <node id="node_680_end" x="765812.7563105249" y="3294771.1581161497" type="priority" />
    <node id="node_683_start" x="766430.7122585538" y="3294870.2249242873" type="priority" />
    <node id="node_683_end" x="766703.3135517999" y="3294913.9494198193" type="priority" />
    <node id="node_684_start" x="765767.0181498751" y="3294763.934638236" type="priority" />
    <node id="node_686_start" x="766711.2059662443" y="3294915.214172298" type="priority" />
    <node id="node_686_end" x="766752.1245460848" y="3294921.764966209" type="priority" />
    <node id="node_687_start" x="765120.0500675443" y="3294660.2196035557" type="priority" />
    <node id="node_691_start" x="766250.5304984925" y="3294826.025389885" type="priority" />
    <node id="node_691_end" x="766432.7097346087" y="3294859.396169063" type="priority" />
    <node id="node_693_start" x="766131.3013189078" y="3294822.1695849975" type="priority" />
    <node id="node_693_end" x="766247.6607982393" y="3294840.8304507397" type="priority" />
    <node id="node_694_start" x="764975.5016287346" y="3294637.0760357385" type="priority" />
    <node id="node_700_start" x="765792.9472465152" y="3294739.6089807753" type="priority" />
    <node id="node_703_start" x="770250.3556342943" y="3295612.6398066366" type="priority" />
    <node id="node_703_end" x="770423.7421727277" y="3295651.0030393666" type="priority" />
    <node id="node_704_start" x="772122.0218810498" y="3295862.746533299" type="priority" />
    <node id="node_704_end" x="772227.643208634" y="3295829.18686076" type="priority" />
    <node id="node_705_start" x="770431.9240407353" y="3295652.786312342" type="priority" />
    <node id="node_705_end" x="770472.0611397218" y="3295661.620967653" type="priority" />
    <node id="node_706_end" x="769856.9294147207" y="3295525.958044664" type="priority" />
    <node id="node_708_start" x="770987.5970847883" y="3295777.23379343" type="priority" />
    <node id="node_710_start" x="772774.3918293244" y="3295655.809409914" type="priority" />
    <node id="node_711_start" x="770129.2436690652" y="3295586.024658352" type="priority" />
    <node id="node_713_start" x="769565.3240084971" y="3295461.6173323174" type="priority" />
    <node id="node_714_start" x="770017.0059597262" y="3295546.367014138" type="priority" />
    <node id="node_714_end" x="770131.5189691681" y="3295575.0581974783" type="priority" />
    <node id="node_715_start" x="772034.0210229858" y="3295887.268342003" type="priority" />
    <node id="node_717_start" x="771306.5286780786" y="3295851.0139800785" type="priority" />
    <node id="node_719_start" x="770979.7373040952" y="3295775.4191435073" type="priority" />
    <node id="node_721_end" x="767640.965096938" y="3295064.2820554357" type="priority" />
    <node id="node_722_start" x="769557.678803799" y="3295459.938601555" type="priority" />
    <node id="node_723_start" x="770899.7708443612" y="3295756.8492606804" type="priority" />
    <node id="node_724_start" x="770013.7137100497" y="3295560.5148334284" type="priority" />
    <node id="node_726_start" x="772771.4789821866" y="3295630.1806127694" type="priority" />
    <node id="node_727_end" x="770848.1238256798" y="3295744.914707693" type="priority" />
    <node id="node_728_start" x="772330.7388601915" y="3295796.578823629" type="priority" />
    <node id="node_731_start" x="769487.336404061" y="3295415.5451147226" type="priority" />
    <node id="node_732_start" x="770856.1575047697" y="3295746.7675336734" type="priority" />
    <node id="node_733_start" x="767644.1096503765" y="3295043.786188648" type="priority" />
    <node id="node_733_end" x="767829.2060320138" y="3295066.041209425" type="priority" />
    <node id="node_736_start" x="771311.1124593505" y="3295829.9193418184" type="priority" />
    <node id="node_736_end" x="771452.1725857032" y="3295855.7864479693" type="priority" />
    <node id="node_688_start" x="764968.0138000515" y="3294635.882241307" type="priority" />
    <node id="junction_8" x="0.0" y="0.0" type="priority" />
    <node id="junction_64" x="0.0" y="0.0" type="priority" />
    <node id="junction_59" x="0.0" y="0.0" type="priority" />
    <node id="junction_108" x="0.0" y="0.0" type="priority" />
    <node id="junction_4" x="0.0" y="0.0" type="priority" />
    <node id="junction_10" x="0.0" y="0.0" type="priority" />
    <node id="junction_11" x="0.0" y="0.0" type="priority" />
    <node id="junction_67" x="0.0" y="0.0" type="priority" />
    <node id="junction_60" x="0.0" y="0.0" type="priority" />
    <node id="junction_9" x="0.0" y="0.0" type="priority" />
    <node id="junction_65" x="0.0" y="0.0" type="priority" />
    <node id="junction_5" x="0.0" y="0.0" type="priority" />
    <node id="junction_68" x="0.0" y="0.0" type="priority" />
    <node id="junction_12" x="0.0" y="0.0" type="priority" />
    <node id="junction_66" x="0.0" y="0.0" type="priority" />
    <node id="junction_61" x="0.0" y="0.0" type="priority" />
    <node id="junction_13" x="0.0" y="0.0" type="priority" />
    <node id="junction_69" x="0.0" y="0.0" type="priority" />
    <node id="junction_2" x="0.0" y="0.0" type="priority" />
    <node id="junction_58" x="0.0" y="0.0" type="priority" />
    <node id="junction_15" x="0.0" y="0.0" type="priority" />
    <node id="junction_16" x="0.0" y="0.0" type="priority" />
    <node id="junction_71" x="0.0" y="0.0" type="priority" />
    <node id="junction_14" x="0.0" y="0.0" type="priority" />
    <node id="junction_72" x="0.0" y="0.0" type="priority" />
    <node id="junction_70" x="0.0" y="0.0" type="priority" />
    <node id="junction_1" x="0.0" y="0.0" type="priority" />
    <node id="junction_73" x="0.0" y="0.0" type="priority" />
    <node id="junction_17" x="0.0" y="0.0" type="priority" />
    <node id="junction_18" x="0.0" y="0.0" type="priority" />
    <node id="junction_19" x="0.0" y="0.0" type="priority" />
    <node id="junction_74" x="0.0" y="0.0" type="priority" />
    <node id="junction_76" x="0.0" y="0.0" type="priority" />
    <node id="junction_7" x="0.0" y="0.0" type="priority" />
    <node id="junction_20" x="0.0" y="0.0" type="priority" />
    <node id="junction_75" x="0.0" y="0.0" type="priority" />
    <node id="junction_21" x="0.0" y="0.0" type="priority" />
    <node id="junction_77" x="0.0" y="0.0" type="priority" />
    <node id="junction_78" x="0.0" y="0.0" type="priority" />
    <node id="junction_62" x="0.0" y="0.0" type="priority" />
    <node id="junction_22" x="0.0" y="0.0" type="priority" />
    <node id="junction_79" x="0.0" y="0.0" type="priority" />
    <node id="junction_23" x="0.0" y="0.0" type="priority" />
    <node id="junction_3" x="0.0" y="0.0" type="priority" />
    <node id="junction_80" x="0.0" y="0.0" type="priority" />
    <node id="junction_24" x="0.0" y="0.0" type="priority" />
    <node id="junction_25" x="0.0" y="0.0" type="priority" />
    <node id="junction_81" x="0.0" y="0.0" type="priority" />
    <node id="junction_26" x="0.0" y="0.0" type="priority" />
    <node id="junction_82" x="0.0" y="0.0" type="priority" />
    <node id="junction_27" x="0.0" y="0.0" type="priority" />
    <node id="junction_83" x="0.0" y="0.0" type="priority" />
    <node id="junction_28" x="0.0" y="0.0" type="priority" />
    <node id="junction_84" x="0.0" y="0.0" type="priority" />
    <node id="junction_85" x="0.0" y="0.0" type="priority" />
    <node id="junction_29" x="0.0" y="0.0" type="priority" />
    <node id="junction_86" x="0.0" y="0.0" type="priority" />
    <node id="junction_87" x="0.0" y="0.0" type="priority" />
    <node id="junction_30" x="0.0" y="0.0" type="priority" />
    <node id="junction_6" x="0.0" y="0.0" type="priority" />
    <node id="junction_88" x="0.0" y="0.0" type="priority" />
    <node id="junction_31" x="0.0" y="0.0" type="priority" />
    <node id="junction_89" x="0.0" y="0.0" type="priority" />
    <node id="junction_32" x="0.0" y="0.0" type="priority" />
    <node id="junction_33" x="0.0" y="0.0" type="priority" />
    <node id="junction_91" x="0.0" y="0.0" type="priority" />
    <node id="junction_34" x="0.0" y="0.0" type="priority" />
    <node id="junction_90" x="0.0" y="0.0" type="priority" />
    <node id="junction_92" x="0.0" y="0.0" type="priority" />
    <node id="junction_37" x="0.0" y="0.0" type="priority" />
    <node id="junction_36" x="0.0" y="0.0" type="priority" />
    <node id="junction_35" x="0.0" y="0.0" type="priority" />
    <node id="junction_94" x="0.0" y="0.0" type="priority" />
    <node id="junction_93" x="0.0" y="0.0" type="priority" />
    <node id="junction_38" x="0.0" y="0.0" type="priority" />
    <node id="junction_95" x="0.0" y="0.0" type="priority" />
    <node id="junction_96" x="0.0" y="0.0" type="priority" />
    <node id="junction_111" x="0.0" y="0.0" type="priority" />
    <node id="junction_106" x="0.0" y="0.0" type="priority" />
    <node id="junction_100" x="0.0" y="0.0" type="priority" />
    <node id="junction_42" x="0.0" y="0.0" type="priority" />
    <node id="junction_101" x="0.0" y="0.0" type="priority" />
    <node id="junction_47" x="0.0" y="0.0" type="priority" />
    <node id="junction_43" x="0.0" y="0.0" type="priority" />
    <node id="junction_103" x="0.0" y="0.0" type="priority" />
    <node id="junction_44" x="0.0" y="0.0" type="priority" />
    <node id="junction_102" x="0.0" y="0.0" type="priority" />
    <node id="junction_104" x="0.0" y="0.0" type="priority" />
    <node id="junction_63" x="0.0" y="0.0" type="priority" />
    <node id="junction_105" x="0.0" y="0.0" type="priority" />
    <node id="junction_45" x="0.0" y="0.0" type="priority" />
    <node id="junction_46" x="0.0" y="0.0" type="priority" />
    <node id="junction_48" x="0.0" y="0.0" type="priority" />
    <node id="junction_107" x="0.0" y="0.0" type="priority" />
    <node id="junction_49" x="0.0" y="0.0" type="priority" />
    <node id="junction_109" x="0.0" y="0.0" type="priority" />
    <node id="junction_50" x="0.0" y="0.0" type="priority" />
    <node id="junction_51" x="0.0" y="0.0" type="priority" />
    <node id="junction_110" x="0.0" y="0.0" type="priority" />
    <node id="junction_52" x="0.0" y="0.0" type="priority" />
    <node id="junction_53" x="0.0" y="0.0" type="priority" />
    <node id="junction_113" x="0.0" y="0.0" type="priority" />
    <node id="junction_54" x="0.0" y="0.0" type="priority" />
    <node id="junction_55" x="0.0" y="0.0" type="priority" />
    <node id="junction_57" x="0.0" y="0.0" type="priority" />
    <node id="junction_114" x="0.0" y="0.0" type="priority" />
    <node id="junction_56" x="0.0" y="0.0" type="priority" />
    <node id="junction_41" x="773115.5676230184" y="3295552.296714449" type="priority" />
    <node id="j_merge_start_39" x="765907.8018683197" y="3294786.485576228" type="priority" />
    <node id="j_merge_end_39" x="766083.4749985865" y="3294814.6013194034" type="priority" />
    <node id="junction_99" x="771149.1106256335" y="3295809.5561493053" type="priority" />
    <node id="junction_97" x="767520.3864181512" y="3295039.934723554" type="priority" />
    <node id="j_merge_start_40" x="769596.2953542862" y="3295468.450254064" type="priority" />
    <node id="j_merge_end_40" x="769804.654177812" y="3295514.394237937" type="priority" />
    <node id="junction_98" x="773831.6741642017" y="3295555.6764015504" type="priority" />
</nodes>