<?xml version='1.0' encoding='utf-8'?>
<connections>
    <connection from="700.0" to="merge_zone_39" fromLane="0" toLane="0" />
    <connection from="merge_zone_39" to="701.0" fromLane="0" toLane="4" dir="r" state="m" />
    <connection from="692.0" to="merge_zone_39" fromLane="2" toLane="3" />
    <connection from="692.0" to="merge_zone_39" fromLane="3" toLane="4" />
    <connection from="692.0" to="merge_zone_39" fromLane="4" toLane="5" />
    <connection from="692.0" to="merge_zone_39" fromLane="1" toLane="2" />
    <connection from="merge_zone_39" to="701.0" fromLane="3" toLane="2" />
    <connection from="merge_zone_39" to="701.0" fromLane="4" toLane="3" />
    <connection from="merge_zone_39" to="701.0" fromLane="5" toLane="4" />
    <connection from="merge_zone_39" to="701.0" fromLane="2" toLane="1" />
    <connection from="713.0" to="merge_zone_40" fromLane="3" toLane="4" />
    <connection from="713.0" to="merge_zone_40" fromLane="1" toLane="2" />
    <connection from="713.0" to="merge_zone_40" fromLane="2" toLane="3" />
    <connection from="713.0" to="merge_zone_40" fromLane="4" toLane="5" />
    <connection from="merge_zone_40" to="706.0" fromLane="4" toLane="3" />
    <connection from="merge_zone_40" to="706.0" fromLane="2" toLane="1" />
    <connection from="merge_zone_40" to="706.0" fromLane="3" toLane="2" />
    <connection from="merge_zone_40" to="706.0" fromLane="5" toLane="4" />
    <connection from="731.0" to="merge_zone_40" fromLane="0" toLane="0" />
    <connection from="merge_zone_40" to="706.0" fromLane="0" toLane="4" dir="r" state="m" />
    <connection from="710.0" to="707.0" fromLane="1" toLane="2" />
    <connection from="710.0" to="707.0" fromLane="2" toLane="3" />
    <connection from="710.0" to="707.0" fromLane="0" toLane="1" />
    <connection from="710.0" to="707.0" fromLane="3" toLane="4" />
    <connection from="690.0" to="721.0" fromLane="3" toLane="2" />
    <connection from="690.0" to="721.0" fromLane="2" toLane="1" />
    <connection from="690.0" to="721.0" fromLane="1" toLane="0" />
    <connection from="690.0" to="721.0" fromLane="4" toLane="3" />
    <connection from="690.0" to="740.0" fromLane="1" toLane="0" />
    <connection from="708.0" to="734.0" fromLane="3" toLane="2" />
    <connection from="708.0" to="734.0" fromLane="1" toLane="0" />
    <connection from="708.0" to="734.0" fromLane="4" toLane="3" />
    <connection from="708.0" to="734.0" fromLane="2" toLane="1" />
    <connection from="708.0" to="742.0" fromLane="1" toLane="0" />
</connections>