<?xml version='1.0' encoding='utf-8'?>
<edges>
    <edge id="680.0" from="node_680_start" to="node_680_end" numLanes="5" speed="13.89" type="town" shape="765775.13,3294765.20 765797.73,3294768.79 765797.73,3294768.79 765812.76,3294771.16">
        <lane index="0" width="3.66" type="shoulder" disallow="all" />
        <lane index="1" width="3.66" />
        <lane index="2" width="3.66" />
        <lane index="3" width="3.66" />
        <lane index="4" width="3.66" type="shoulder" disallow="all" />
    </edge>
    <edge id="683.0" from="node_683_start" to="node_683_end" numLanes="5" speed="13.89" type="town" shape="766430.71,3294870.22 766459.06,3294874.81 766459.06,3294874.81 766489.91,3294879.75 766489.91,3294879.75 766524.79,3294885.32 766524.79,3294885.32 766557.27,3294890.58 766557.27,3294890.58 766587.67,3294895.49 766587.67,3294895.49 766590.40,3294895.85 766590.40,3294895.85 766610.05,3294899.33 766610.05,3294899.33 766622.21,3294901.42 766622.21,3294901.42 766661.91,3294907.33 766661.91,3294907.33 766703.31,3294913.95">
        <lane index="0" width="3.66" type="shoulder" disallow="all" />
        <lane index="1" width="3.66" />
        <lane index="2" width="3.66" />
        <lane index="3" width="3.66" />
        <lane index="4" width="3.66" type="shoulder" disallow="all" />
    </edge>
    <edge id="684.0" from="node_684_start" to="node_680_start" numLanes="5" speed="13.89" type="town" shape="765767.02,3294763.93 765775.13,3294765.20">
        <lane index="0" width="3.66" type="shoulder" disallow="all" />
        <lane index="1" width="3.66" />
        <lane index="2" width="3.66" />
        <lane index="3" width="3.66" />
        <lane index="4" width="3.66" type="shoulder" disallow="all" />
    </edge>
    <edge id="686.0" from="node_686_start" to="node_686_end" numLanes="5" speed="13.89" type="town" shape="766711.21,3294915.21 766728.63,3294918.03 766728.63,3294918.03 766746.17,3294920.85 766746.17,3294920.85 766752.12,3294921.76">
        <lane index="0" width="3.66" type="shoulder" disallow="all" />
        <lane index="1" width="3.66" />
        <lane index="2" width="3.66" />
        <lane index="3" width="3.66" />
        <lane index="4" width="3.66" type="shoulder" disallow="all" />
    </edge>
    <edge id="687.0" from="node_687_start" to="node_684_start" numLanes="5" speed="13.89" type="town" shape="765120.05,3294660.22 765148.08,3294664.67 765148.08,3294664.67 765176.22,3294669.30 765176.22,3294669.30 765215.22,3294675.52 765215.22,3294675.52 765250.24,3294681.10 765250.24,3294681.10 765282.34,3294686.24 765282.34,3294686.24 765317.49,3294691.84 765317.49,3294691.84 765345.21,3294696.32 765345.21,3294696.32 765367.34,3294699.73 765367.34,3294699.73 765391.20,3294703.65 765391.20,3294703.65 765412.46,3294707.09 765412.46,3294707.09 765432.38,3294710.30 765432.38,3294710.30 765456.07,3294714.06 765456.07,3294714.06 765478.94,3294717.73 765478.94,3294717.73 765500.20,3294721.15 765500.20,3294721.15 765521.06,3294724.48 765521.06,3294724.48 765526.14,3294725.30 765526.14,3294725.30 765544.00,3294728.16 765544.00,3294728.16 765563.06,3294731.19 765563.06,3294731.19 765584.42,3294734.62 765584.42,3294734.62 765606.61,3294738.21 765606.61,3294738.21 765624.63,3294741.05 765624.63,3294741.05 765630.01,3294741.92 765630.01,3294741.92 765640.96,3294743.69 765640.96,3294743.69 765648.33,3294744.87 765648.33,3294744.87 765658.96,3294746.57 765658.96,3294746.57 765664.79,3294747.51 765664.79,3294747.51 765674.24,3294749.05 765674.24,3294749.05 765676.49,3294749.42 765676.49,3294749.42 765696.73,3294752.64 765696.73,3294752.64 765718.02,3294756.06 765718.02,3294756.06 765738.15,3294759.28 765738.15,3294759.28 765757.50,3294762.38 765757.50,3294762.38 765767.02,3294763.93">
        <lane index="0" width="3.66" type="shoulder" disallow="all" />
        <lane index="1" width="3.66" />
        <lane index="2" width="3.66" />
        <lane index="3" width="3.66" />
        <lane index="4" width="3.66" type="shoulder" disallow="all" />
    </edge>
    <edge id="689.0" from="node_683_end" to="node_686_start" numLanes="5" speed="13.89" type="town" shape="766703.31,3294913.95 766711.21,3294915.21">
        <lane index="0" width="3.66" type="shoulder" disallow="all" />
        <lane index="1" width="3.66" />
        <lane index="2" width="3.66" />
        <lane index="3" width="3.66" />
        <lane index="4" width="3.66" type="shoulder" disallow="all" />
    </edge>
    <edge id="690.0" from="node_686_end" to="junction_97" numLanes="5" speed="13.89" type="town" shape="766752.12,3294921.76 766769.41,3294924.59 766769.41,3294924.59 766795.33,3294928.74 766795.33,3294928.74 766822.67,3294933.15 766822.67,3294933.15 766848.75,3294937.34 766848.75,3294937.34 766870.28,3294940.74 766870.28,3294940.74 766889.27,3294943.79 766889.27,3294943.79 766909.90,3294947.08 766909.90,3294947.08 766930.87,3294950.45 766930.87,3294950.45 766944.35,3294952.65 766944.35,3294952.65 766945.90,3294952.90 766945.90,3294952.90 766950.63,3294953.70 766950.63,3294953.70 766959.79,3294955.15 766959.79,3294955.15 766969.53,3294956.72 766969.53,3294956.72 766977.34,3294957.96 766977.34,3294957.96 766987.85,3294959.66 766987.85,3294959.66 767001.70,3294961.88 767001.70,3294961.88 767020.20,3294964.85 767020.20,3294964.85 767038.81,3294967.83 767038.81,3294967.83 767052.56,3294970.03 767052.56,3294970.03 767067.72,3294972.42 767067.72,3294972.42 767073.78,3294973.43 767073.78,3294973.43 767079.23,3294974.30 767079.23,3294974.30 767099.82,3294977.61 767099.82,3294977.61 767117.77,3294980.48 767117.77,3294980.48 767125.84,3294981.76 767125.84,3294981.76 767134.14,3294983.09 767134.14,3294983.09 767143.54,3294984.63 767143.54,3294984.63 767154.89,3294986.43 767154.89,3294986.43 767164.85,3294988.02 767164.85,3294988.02 767173.06,3294989.31 767173.06,3294989.31 767191.60,3294992.31 767191.60,3294992.31 767198.84,3294993.48 767198.84,3294993.48 767216.61,3294996.30 767216.61,3294996.30 767227.91,3294998.11 767227.91,3294998.11 767238.00,3294999.74 767238.00,3294999.74 767251.51,3295001.88 767251.51,3295001.88 767263.81,3295003.85 767263.81,3295003.85 767277.09,3295005.97 767277.09,3295005.97 767288.88,3295007.85 767288.88,3295007.85 767294.10,3295008.70 767294.10,3295008.70 767309.64,3295011.18 767309.64,3295011.18 767325.65,3295013.75 767325.65,3295013.75 767344.64,3295016.79 767344.64,3295016.79 767363.73,3295019.87 767363.73,3295019.87 767387.93,3295023.75 767387.93,3295023.75 767400.85,3295025.78 767400.85,3295025.78 767408.21,3295026.99 767408.21,3295026.99 767425.62,3295029.77 767425.62,3295029.77 767443.52,3295032.65 767443.52,3295032.65 767462.83,3295035.74 767462.83,3295035.74 767464.91,3295036.08">
        <lane index="0" width="3.66" type="shoulder" disallow="all" />
        <lane index="1" width="3.66" />
        <lane index="2" width="3.66" />
        <lane index="3" width="3.66" />
        <lane index="4" width="3.66" type="shoulder" disallow="all" />
    </edge>
    <edge id="691.0" from="node_693_end" to="node_683_start" numLanes="1" speed="13.89" type="town" shape="766250.53,3294826.03 766285.19,3294832.38 766285.19,3294832.38 766335.25,3294841.55 766335.25,3294841.55 766382.81,3294850.26 766382.81,3294850.26 766432.71,3294859.40">
        <lane index="0" width="3.66" />
    </edge>
    <edge id="692.0" from="node_680_end" to="j_merge_start_39" numLanes="5" speed="13.89" type="town" shape="765812.76,3294771.16 765854.71,3294777.89 765854.71,3294777.89 765899.40,3294785.08 765899.40,3294785.08 765907.80,3294786.49">
        <lane index="0" width="3.66" type="shoulder" disallow="all" />
        <lane index="1" width="3.66" />
        <lane index="2" width="3.66" />
        <lane index="3" width="3.66" />
        <lane index="4" width="3.66" type="shoulder" disallow="all" />
    </edge>
    <edge id="693.0" from="node_693_start" to="node_693_end" numLanes="5" speed="13.89" type="town" shape="766131.30,3294822.17 766159.22,3294826.73 766159.22,3294826.73 766190.33,3294831.73 766190.33,3294831.73 766231.20,3294838.21 766231.20,3294838.21 766247.66,3294840.83">
        <lane index="0" width="3.66" />
        <lane index="1" width="3.66" />
        <lane index="2" width="3.66" />
        <lane index="3" width="3.66" />
        <lane index="4" width="3.66" type="shoulder" disallow="all" />
    </edge>
    <edge id="694.0" from="node_694_start" to="node_687_start" numLanes="5" speed="13.89" type="town" shape="764975.50,3294637.08 764999.56,3294640.97 764999.56,3294640.97 765025.45,3294645.07 765025.45,3294645.07 765046.00,3294648.40 765046.00,3294648.40 765071.70,3294652.56 765071.70,3294652.56 765081.51,3294654.13 765081.51,3294654.13 765093.83,3294656.08 765093.83,3294656.08 765112.03,3294659.02 765112.03,3294659.02 765120.05,3294660.22">
        <lane index="0" width="3.66" type="shoulder" disallow="all" />
        <lane index="1" width="3.66" />
        <lane index="2" width="3.66" />
        <lane index="3" width="3.66" />
        <lane index="4" width="3.66" type="shoulder" disallow="all" />
    </edge>
    <edge id="699.0" from="node_693_end" to="node_683_start" numLanes="4" speed="13.89" type="town" shape="766247.66,3294840.83 766284.12,3294846.74 766284.12,3294846.74 766328.69,3294853.86 766328.69,3294853.86 766375.82,3294861.41 766375.82,3294861.41 766386.66,3294863.16 766386.66,3294863.16 766418.49,3294868.23 766418.49,3294868.23 766430.71,3294870.22">
        <lane index="0" width="3.66" />
        <lane index="1" width="3.66" />
        <lane index="2" width="3.66" />
        <lane index="3" width="3.66" type="shoulder" disallow="all" />
    </edge>
    <edge id="700.0" from="node_700_start" to="j_merge_start_39" numLanes="1" speed="13.89" type="town" shape="765792.95,3294739.61 765806.90,3294742.38 765806.90,3294742.38 765832.53,3294747.38 765832.53,3294747.38 765853.35,3294751.53 765853.35,3294751.53 765875.02,3294755.87 765875.02,3294755.87 765895.72,3294760.21 765895.72,3294760.21 765911.93,3294763.65">
        <lane index="0" width="3.66" />
    </edge>
    <edge id="701.0" from="j_merge_end_39" to="node_693_start" numLanes="5" speed="13.89" type="town" shape="766083.47,3294814.60 766113.58,3294819.37 766113.58,3294819.37 766131.30,3294822.17">
        <lane index="0" width="3.66" />
        <lane index="1" width="3.66" />
        <lane index="2" width="3.66" />
        <lane index="3" width="3.66" />
        <lane index="4" width="3.66" type="shoulder" disallow="all" />
    </edge>
    <edge id="703.0" from="node_703_start" to="node_703_end" numLanes="5" speed="13.89" type="town" shape="770250.36,3295612.64 770259.15,3295614.58 770259.15,3295614.58 770283.11,3295619.92 770283.11,3295619.92 770305.26,3295624.79 770305.26,3295624.79 770331.11,3295630.53 770331.11,3295630.53 770354.10,3295635.56 770354.10,3295635.56 770378.48,3295640.91 770378.48,3295640.91 770400.60,3295645.87 770400.60,3295645.87 770423.06,3295650.85 770423.06,3295650.85 770423.74,3295651.00">
        <lane index="0" width="3.66" type="shoulder" disallow="all" />
        <lane index="1" width="3.66" />
        <lane index="2" width="3.66" />
        <lane index="3" width="3.66" />
        <lane index="4" width="3.66" type="shoulder" disallow="all" />
    </edge>
    <edge id="704.0" from="node_704_start" to="node_704_end" numLanes="5" speed="13.89" type="town" shape="772122.02,3295862.75 772132.39,3295859.47 772132.39,3295859.47 772159.20,3295850.84 772159.20,3295850.84 772180.74,3295844.04 772180.74,3295844.04 772206.57,3295835.93 772206.57,3295835.93 772227.64,3295829.19">
        <lane index="0" width="3.66" type="shoulder" disallow="all" />
        <lane index="1" width="3.66" />
        <lane index="2" width="3.66" />
        <lane index="3" width="3.66" />
        <lane index="4" width="3.66" type="shoulder" disallow="all" />
    </edge>
    <edge id="705.0" from="node_705_start" to="node_705_end" numLanes="5" speed="13.89" type="town" shape="770431.92,3295652.79 770442.85,3295655.17 770442.85,3295655.17 770460.57,3295659.09 770460.57,3295659.09 770472.06,3295661.62">
        <lane index="0" width="3.66" type="shoulder" disallow="all" />
        <lane index="1" width="3.66" />
        <lane index="2" width="3.66" />
        <lane index="3" width="3.66" />
        <lane index="4" width="3.66" type="shoulder" disallow="all" />
    </edge>
    <edge id="706.0" from="j_merge_end_40" to="node_706_end" numLanes="5" speed="13.89" type="town" shape="769804.65,3295514.39 769829.73,3295519.94 769829.73,3295519.94 769856.93,3295525.96">
        <lane index="0" width="3.66" />
        <lane index="1" width="3.66" />
        <lane index="2" width="3.66" />
        <lane index="3" width="3.66" />
        <lane index="4" width="3.66" type="shoulder" disallow="all" />
    </edge>
    <edge id="708.0" from="node_708_start" to="junction_99" numLanes="5" speed="13.89" type="town" shape="770987.60,3295777.23 770992.97,3295778.47 770992.97,3295778.47 771015.68,3295783.72 771015.68,3295783.72 771023.70,3295785.54 771023.70,3295785.54 771033.48,3295787.83 771033.48,3295787.83 771045.39,3295790.56 771045.39,3295790.56 771048.52,3295791.28">
        <lane index="0" width="3.66" type="shoulder" disallow="all" />
        <lane index="1" width="3.66" />
        <lane index="2" width="3.66" />
        <lane index="3" width="3.66" />
        <lane index="4" width="3.66" type="shoulder" disallow="all" />
    </edge>
    <edge id="710.0" from="node_710_start" to="junction_41" numLanes="4" speed="13.89" type="town" shape="772774.39,3295655.81 772803.52,3295646.64 772803.52,3295646.64 772854.15,3295630.48 772854.15,3295630.48 772908.33,3295613.41 772908.33,3295613.41 772938.38,3295603.86 772938.38,3295603.86 772971.53,3295593.55 772971.53,3295593.55 773005.85,3295583.59 773005.85,3295583.59 773030.79,3295576.78 773030.79,3295576.78 773049.14,3295572.07 773049.14,3295572.07 773072.00,3295566.47 773072.00,3295566.47 773085.31,3295563.39">
        <lane index="0" width="3.66" />
        <lane index="1" width="3.66" />
        <lane index="2" width="3.66" />
        <lane index="3" width="3.66" type="shoulder" disallow="all" />
    </edge>
    <edge id="711.0" from="node_711_start" to="node_703_start" numLanes="5" speed="13.89" type="town" shape="770129.24,3295586.02 770139.53,3295588.30 770139.53,3295588.30 770183.50,3295597.94 770183.50,3295597.94 770226.64,3295607.40 770226.64,3295607.40 770250.36,3295612.64">
        <lane index="0" width="3.66" type="shoulder" disallow="all" />
        <lane index="1" width="3.66" />
        <lane index="2" width="3.66" />
        <lane index="3" width="3.66" />
        <lane index="4" width="3.66" type="shoulder" disallow="all" />
    </edge>
    <edge id="713.0" from="node_713_start" to="j_merge_start_40" numLanes="5" speed="13.89" type="town" shape="769565.32,3295461.62 769581.59,3295465.19 769581.59,3295465.19 769596.30,3295468.45">
        <lane index="0" width="3.66" type="shoulder" disallow="all" />
        <lane index="1" width="3.66" />
        <lane index="2" width="3.66" />
        <lane index="3" width="3.66" />
        <lane index="4" width="3.66" type="shoulder" disallow="all" />
    </edge>
    <edge id="714.0" from="node_724_start" to="node_711_start" numLanes="1" speed="13.89" type="town" shape="770017.01,3295546.37 770131.52,3295575.06">
        <lane index="0" width="3.66" />
    </edge>
    <edge id="715.0" from="node_715_start" to="node_704_start" numLanes="5" speed="13.89" type="town" shape="772034.02,3295887.27 772047.35,3295884.08 772047.35,3295884.08 772071.69,3295877.69 772071.69,3295877.69 772090.91,3295872.27 772090.91,3295872.27 772112.66,3295865.70 772112.66,3295865.70 772122.02,3295862.75">
        <lane index="0" width="3.66" type="shoulder" disallow="all" />
        <lane index="1" width="3.66" />
        <lane index="2" width="3.66" />
        <lane index="3" width="3.66" />
        <lane index="4" width="3.66" type="shoulder" disallow="all" />
    </edge>
    <edge id="717.0" from="node_717_start" to="node_715_start" numLanes="5" speed="13.89" type="town" shape="771306.53,3295851.01 771320.44,3295854.20 771320.44,3295854.20 771343.33,3295859.55 771343.33,3295859.55 771374.80,3295866.87 771374.80,3295866.87 771403.31,3295873.46 771403.31,3295873.46 771434.45,3295880.65 771434.45,3295880.65 771468.23,3295888.50 771468.23,3295888.50 771488.69,3295893.13 771488.69,3295893.13 771506.42,3295896.85 771506.42,3295896.85 771524.23,3295900.27 771524.23,3295900.27 771542.54,3295903.53 771542.54,3295903.53 771563.60,3295906.95 771563.60,3295906.95 771575.99,3295908.73 771575.99,3295908.73 771585.12,3295909.97 771585.12,3295909.97 771599.77,3295911.86 771599.77,3295911.86 771608.31,3295912.87 771608.31,3295912.87 771622.91,3295914.54 771622.91,3295914.54 771632.22,3295915.40 771632.22,3295915.40 771648.37,3295916.87 771648.37,3295916.87 771672.14,3295918.52 771672.14,3295918.52 771680.49,3295919.07 771680.49,3295919.07 771697.89,3295919.90 771697.89,3295919.90 771715.65,3295920.57 771715.65,3295920.57 771738.44,3295920.97 771738.44,3295920.97 771756.40,3295921.00 771756.40,3295921.00 771773.68,3295920.80 771773.68,3295920.80 771789.84,3295920.33 771789.84,3295920.33 771809.91,3295919.53 771809.91,3295919.53 771824.73,3295918.63 771824.73,3295918.63 771846.60,3295917.17 771846.60,3295917.17 771866.71,3295915.28 771866.71,3295915.28 771887.81,3295913.10 771887.81,3295913.10 771904.29,3295911.04 771904.29,3295911.04 771920.18,3295908.98 771920.18,3295908.98 771938.18,3295906.25 771938.18,3295906.25 771957.77,3295903.01 771957.77,3295903.01 771977.25,3295899.56 771977.25,3295899.56 772001.35,3295894.72 772001.35,3295894.72 772024.39,3295889.58 772024.39,3295889.58 772034.02,3295887.27">
        <lane index="0" width="3.66" type="shoulder" disallow="all" />
        <lane index="1" width="3.66" />
        <lane index="2" width="3.66" />
        <lane index="3" width="3.66" />
        <lane index="4" width="3.66" type="shoulder" disallow="all" />
    </edge>
    <edge id="718.0" from="node_703_end" to="node_705_start" numLanes="5" speed="13.89" type="town" shape="770423.74,3295651.00 770431.92,3295652.79">
        <lane index="0" width="3.66" type="shoulder" disallow="all" />
        <lane index="1" width="3.66" />
        <lane index="2" width="3.66" />
        <lane index="3" width="3.66" />
        <lane index="4" width="3.66" type="shoulder" disallow="all" />
    </edge>
    <edge id="719.0" from="node_719_start" to="node_708_start" numLanes="5" speed="13.89" type="town" shape="770979.74,3295775.42 770987.60,3295777.23">
        <lane index="0" width="3.66" type="shoulder" disallow="all" />
        <lane index="1" width="3.66" />
        <lane index="2" width="3.66" />
        <lane index="3" width="3.66" />
        <lane index="4" width="3.66" type="shoulder" disallow="all" />
    </edge>
    <edge id="721.0" from="junction_97" to="node_721_end" numLanes="4" speed="13.89" type="town" shape="767546.97,3295049.24 767549.48,3295049.65 767549.48,3295049.65 767555.50,3295050.60 767555.50,3295050.60 767560.43,3295051.39 767560.43,3295051.39 767565.57,3295052.21 767565.57,3295052.21 767571.07,3295053.08 767571.07,3295053.08 767577.18,3295054.10 767577.18,3295054.10 767582.23,3295054.91 767582.23,3295054.91 767586.90,3295055.65 767586.90,3295055.65 767599.63,3295057.69 767599.63,3295057.69 767612.39,3295059.68 767612.39,3295059.68 767627.59,3295062.16 767627.59,3295062.16 767640.97,3295064.28">
        <lane index="0" width="3.66" />
        <lane index="1" width="3.66" />
        <lane index="2" width="3.66" />
        <lane index="3" width="3.66" type="shoulder" disallow="all" />
    </edge>
    <edge id="722.0" from="node_722_start" to="node_713_start" numLanes="5" speed="13.89" type="town" shape="769557.68,3295459.94 769565.32,3295461.62">
        <lane index="0" width="3.66" type="shoulder" disallow="all" />
        <lane index="1" width="3.66" />
        <lane index="2" width="3.66" />
        <lane index="3" width="3.66" />
        <lane index="4" width="3.66" type="shoulder" disallow="all" />
    </edge>
    <edge id="723.0" from="node_723_start" to="node_719_start" numLanes="5" speed="13.89" type="town" shape="770899.77,3295756.85 770911.89,3295759.66 770911.89,3295759.66 770939.10,3295765.94 770939.10,3295765.94 770964.42,3295771.88 770964.42,3295771.88 770979.74,3295775.42">
        <lane index="0" width="3.66" type="shoulder" disallow="all" />
        <lane index="1" width="3.66" />
        <lane index="2" width="3.66" />
        <lane index="3" width="3.66" />
        <lane index="4" width="3.66" type="shoulder" disallow="all" />
    </edge>
    <edge id="724.0" from="node_724_start" to="node_711_start" numLanes="4" speed="13.89" type="town" shape="770013.71,3295560.51 770030.24,3295564.12 770030.24,3295564.12 770060.75,3295570.91 770060.75,3295570.91 770099.56,3295579.46 770099.56,3295579.46 770129.24,3295586.02">
        <lane index="0" width="3.66" />
        <lane index="1" width="3.66" />
        <lane index="2" width="3.66" />
        <lane index="3" width="3.66" type="shoulder" disallow="all" />
    </edge>
    <edge id="725.0" from="node_706_end" to="node_724_start" numLanes="5" speed="13.89" type="town" shape="769856.93,3295525.96 769866.89,3295528.16 769866.89,3295528.16 769905.13,3295536.54 769905.13,3295536.54 769941.32,3295544.55 769941.32,3295544.55 769977.01,3295552.44 769977.01,3295552.44 770007.26,3295559.11 770007.26,3295559.11 770013.71,3295560.51">
        <lane index="0" width="3.66" />
        <lane index="1" width="3.66" />
        <lane index="2" width="3.66" />
        <lane index="3" width="3.66" />
        <lane index="4" width="3.66" type="shoulder" disallow="all" />
    </edge>
    <edge id="726.0" from="node_726_start" to="junction_41" numLanes="1" speed="13.89" type="town" shape="772771.48,3295630.18 772781.03,3295628.06 772781.03,3295628.06 772793.89,3295625.02 772793.89,3295625.02 772806.88,3295621.75 772806.88,3295621.75 772818.03,3295618.87 772818.03,3295618.87 772828.59,3295615.88 772828.59,3295615.88 772836.86,3295613.47 772836.86,3295613.47 772845.24,3295610.92 772845.24,3295610.92 772856.42,3295607.43 772856.42,3295607.43 772865.52,3295604.60 772865.52,3295604.60 772872.48,3295602.41 772872.48,3295602.41 772880.95,3295599.79 772880.95,3295599.79 772898.62,3295594.39 772898.62,3295594.39 772918.06,3295588.75 772918.06,3295588.75 772941.05,3295582.26 772941.05,3295582.26 772959.84,3295577.20 772959.84,3295577.20 772978.26,3295572.44 772978.26,3295572.44 773000.01,3295567.04 773000.01,3295567.04 773020.06,3295562.29 773020.06,3295562.29 773036.90,3295558.49 773036.90,3295558.49 773056.05,3295554.34 773056.05,3295554.34 773072.80,3295550.85 773072.80,3295550.85 773081.67,3295549.06">
        <lane index="0" width="3.66" />
    </edge>
    <edge id="727.0" from="node_705_end" to="node_727_end" numLanes="5" speed="13.89" type="town" shape="770472.06,3295661.62 770479.45,3295663.25 770479.45,3295663.25 770499.47,3295667.70 770499.47,3295667.70 770519.06,3295672.02 770519.06,3295672.02 770538.75,3295676.34 770538.75,3295676.34 770560.13,3295681.06 770560.13,3295681.06 770581.29,3295685.67 770581.29,3295685.67 770601.58,3295690.13 770601.58,3295690.13 770623.75,3295695.05 770623.75,3295695.05 770644.13,3295699.52 770644.13,3295699.52 770664.51,3295704.00 770664.51,3295704.00 770675.85,3295706.53 770675.85,3295706.53 770686.21,3295708.83 770686.21,3295708.83 770711.42,3295714.39 770711.42,3295714.39 770721.84,3295716.65 770721.84,3295716.65 770737.57,3295720.14 770737.57,3295720.14 770765.39,3295726.27 770765.39,3295726.27 770793.58,3295732.51 770793.58,3295732.51 770811.79,3295736.56 770811.79,3295736.56 770831.62,3295741.11 770831.62,3295741.11 770848.12,3295744.91">
        <lane index="0" width="3.66" type="shoulder" disallow="all" />
        <lane index="1" width="3.66" />
        <lane index="2" width="3.66" />
        <lane index="3" width="3.66" />
        <lane index="4" width="3.66" type="shoulder" disallow="all" />
    </edge>
    <edge id="728.0" from="node_728_start" to="node_710_start" numLanes="5" speed="13.89" type="town" shape="772330.74,3295796.58 772333.57,3295795.69 772333.57,3295795.69 772360.98,3295787.00 772360.98,3295787.00 772396.21,3295775.85 772396.21,3295775.85 772427.01,3295766.07 772427.01,3295766.07 772469.88,3295752.44 772469.88,3295752.44 772507.14,3295740.66 772507.14,3295740.66 772532.08,3295732.76 772532.08,3295732.76 772564.83,3295722.35 772564.83,3295722.35 772591.32,3295713.92 772591.32,3295713.92 772636.55,3295699.64 772636.55,3295699.64 772665.22,3295690.52 772665.22,3295690.52 772688.81,3295683.06 772688.81,3295683.06 772712.76,3295675.39 772712.76,3295675.39 772755.59,3295661.73 772755.59,3295661.73 772774.39,3295655.81">
        <lane index="0" width="3.66" type="shoulder" disallow="all" />
        <lane index="1" width="3.66" />
        <lane index="2" width="3.66" />
        <lane index="3" width="3.66" />
        <lane index="4" width="3.66" type="shoulder" disallow="all" />
    </edge>
    <edge id="730.0" from="node_721_end" to="node_722_start" numLanes="5" speed="13.89" type="town" shape="767640.97,3295064.28 767661.87,3295067.64 767661.87,3295067.64 767682.62,3295070.98 767682.62,3295070.98 767725.31,3295077.85 767725.31,3295077.85 767756.49,3295082.81 767756.49,3295082.81 767779.49,3295086.48 767779.49,3295086.48 767810.77,3295091.49 767810.77,3295091.49 767846.07,3295097.24 767846.07,3295097.24 767878.80,3295102.45 767878.80,3295102.45 767914.38,3295108.13 767914.38,3295108.13 767957.72,3295115.14 767957.72,3295115.14 767969.51,3295117.02 767969.51,3295117.02 767995.62,3295121.38 767995.62,3295121.38 768020.14,3295125.62 768020.14,3295125.62 768039.17,3295129.09 768039.17,3295129.09 768048.40,3295130.78 768048.40,3295130.78 768062.92,3295133.41 768062.92,3295133.41 768079.13,3295136.41 768079.13,3295136.41 768096.71,3295139.78 768096.71,3295139.78 768113.75,3295143.04 768113.75,3295143.04 768130.94,3295146.41 768130.94,3295146.41 768142.21,3295148.65 768142.21,3295148.65 768151.43,3295150.51 768151.43,3295150.51 768163.91,3295153.07 768163.91,3295153.07 768177.66,3295155.89 768177.66,3295155.89 768191.12,3295158.70 768191.12,3295158.70 768197.77,3295160.10 768197.77,3295160.10 768206.33,3295161.93 768206.33,3295161.93 768223.00,3295165.52 768223.00,3295165.52 768235.69,3295168.26 768235.69,3295168.26 768246.92,3295170.79 768246.92,3295170.79 768257.13,3295173.04 768257.13,3295173.04 768267.24,3295175.26 768267.24,3295175.26 768277.69,3295177.57 768277.69,3295177.57 768292.73,3295180.86 768292.73,3295180.86 768304.00,3295183.34 768304.00,3295183.34 768315.80,3295185.95 768315.80,3295185.95 768328.49,3295188.75 768328.49,3295188.75 768339.66,3295191.21 768339.66,3295191.21 768349.96,3295193.49 768349.96,3295193.49 768361.29,3295196.00 768361.29,3295196.00 768377.88,3295199.66 768377.88,3295199.66 768384.61,3295201.12 768384.61,3295201.12 768397.51,3295203.96 768397.51,3295203.96 768408.19,3295206.32 768408.19,3295206.32 768419.74,3295208.87 768419.74,3295208.87 768436.95,3295212.69 768436.95,3295212.69 768451.02,3295215.77 768451.02,3295215.77 768468.33,3295219.63 768468.33,3295219.63 768480.67,3295222.32 768480.67,3295222.32 768491.99,3295224.80 768491.99,3295224.80 768503.87,3295227.46 768503.87,3295227.46 768513.72,3295229.61 768513.72,3295229.61 768523.31,3295231.75 768523.31,3295231.75 768535.13,3295234.34 768535.13,3295234.34 768546.96,3295236.95 768546.96,3295236.95 768557.88,3295239.33 768557.88,3295239.33 768570.82,3295242.20 768570.82,3295242.20 768586.39,3295245.62 768586.39,3295245.62 768601.81,3295249.04 768601.81,3295249.04 768624.95,3295254.16 768624.95,3295254.16 768647.72,3295259.21 768647.72,3295259.21 768673.53,3295264.86 768673.53,3295264.86 768691.34,3295268.78 768691.34,3295268.78 768709.80,3295272.83 768709.80,3295272.83 768726.05,3295276.46 768726.05,3295276.46 768752.13,3295282.21 768752.13,3295282.21 768762.91,3295284.49 768762.91,3295284.49 768766.12,3295284.89 768766.12,3295284.89 768773.48,3295286.49 768773.48,3295286.49 768779.74,3295287.94 768779.74,3295287.94 768781.23,3295288.46 768781.23,3295288.46 768783.93,3295289.21 768783.93,3295289.21 768787.77,3295290.10 768787.77,3295290.10 768810.30,3295294.98 768810.30,3295294.98 768827.81,3295298.88 768827.81,3295298.88 768835.10,3295300.49 768835.10,3295300.49 768845.41,3295302.76 768845.41,3295302.76 768864.74,3295306.97 768864.74,3295306.97 768897.30,3295314.22 768897.30,3295314.22 768922.69,3295319.81 768922.69,3295319.81 768953.80,3295326.63 768953.80,3295326.63 768989.51,3295334.54 768989.51,3295334.54 769024.38,3295342.21 769024.38,3295342.21 769070.12,3295352.30 769070.12,3295352.30 769107.14,3295360.47 769107.14,3295360.47 769136.70,3295366.96 769136.70,3295366.96 769162.59,3295372.70 769162.59,3295372.70 769180.24,3295376.58 769180.24,3295376.58 769198.85,3295380.66 769198.85,3295380.66 769236.95,3295389.11 769236.95,3295389.11 769274.27,3295397.34 769274.27,3295397.34 769310.36,3295405.36 769310.36,3295405.36 769335.92,3295410.91 769335.92,3295410.91 769385.43,3295421.87 769385.43,3295421.87 769431.07,3295431.96 769431.07,3295431.96 769457.05,3295437.70 769457.05,3295437.70 769481.75,3295443.16 769481.75,3295443.16 769523.28,3295452.28 769523.28,3295452.28 769553.93,3295459.12 769553.93,3295459.12 769557.68,3295459.94">
        <lane index="0" width="3.66" type="shoulder" disallow="all" />
        <lane index="1" width="3.66" />
        <lane index="2" width="3.66" />
        <lane index="3" width="3.66" />
        <lane index="4" width="3.66" type="shoulder" disallow="all" />
    </edge>
    <edge id="731.0" from="node_731_start" to="j_merge_start_40" numLanes="1" speed="13.89" type="town" shape="769487.34,3295415.55 769509.00,3295421.32 769509.00,3295421.32 769525.82,3295425.81 769525.82,3295425.81 769544.15,3295430.70 769544.15,3295430.70 769551.00,3295432.62 769551.00,3295432.62 769598.96,3295445.28 769598.96,3295445.28 769601.55,3295445.97">