<?xml version="1.0" encoding="UTF-8"?>

<!-- generated on 2025-10-19 17:35:18 by Eclipse SUMO netconvert Version 1.23.1
<netconvertConfiguration xmlns:xsi="http://www.w3.org/2001/XMLSchema-instance" xsi:noNamespaceSchemaLocation="http://sumo.dlr.de/xsd/netconvertConfiguration.xsd">

    <input>
        <node-files value="/home/sdai/harry/TeraSim/jupiter/eb/jupiter_eb_tiles/tile_0129/tile_0129.nod.xml"/>
        <edge-files value="/home/sdai/harry/TeraSim/jupiter/eb/jupiter_eb_tiles/tile_0129/tile_0129.edg.xml"/>
        <connection-files value="/home/sdai/harry/TeraSim/jupiter/eb/jupiter_eb_tiles/tile_0129/tile_0129.con.xml"/>
    </input>

    <output>
        <output-file value="/home/sdai/harry/TeraSim/jupiter/eb/jupiter_eb_tiles/tile_0129/tile_0129.net.xml"/>
        <output.street-names value="true"/>
        <output.original-names value="true"/>
    </output>

    <processing>
        <geometry.remove value="false"/>
        <geometry.min-dist value="0.5"/>
        <edges.join value="false"/>
    </processing>

    <junctions>
        <no-internal-links value="false"/>
        <no-turnarounds value="true"/>
        <junctions.join value="true"/>
        <junctions.join-dist value="10"/>
        <junctions.corner-detail value="5"/>
        <junctions.internal-link-detail value="5"/>
        <junctions.limit-turn-speed value="5.5"/>
        <rectangular-lane-cut value="true"/>
        <check-lane-foes.all value="true"/>
    </junctions>

</netconvertConfiguration>
-->

<net version="1.20" junctionCornerDetail="5" junctionLinkDetail="5" rectangularLaneCut="true" limitTurnSpeed="5.50" checkLaneFoesAll="1" xmlns:xsi="http://www.w3.org/2001/XMLSchema-instance" xsi:noNamespaceSchemaLocation="http://sumo.dlr.de/xsd/net_file.xsd">

    <location netOffset="-764975.50,-3294637.08" convBoundary="0.00,0.00,8856.17,1283.92" origBoundary="0.00,0.00,773831.67,3295921.00" projParameter="!"/>

    <edge id=":j_merge_end_39_0" function="internal">
        <lane id=":j_merge_end_39_0_0" index="0" disallow="all" speed="13.89" length="37.84" width="3.66" shape="1074.89,151.79 1085.81,156.44 1091.57,163.76 1097.34,171.08 1108.26,175.72"/>
        <lane id=":j_merge_end_39_0_1" index="1" speed="13.89" length="37.84" width="3.66" shape="1073.74,159.01 1109.97,164.87"/>
        <lane id=":j_merge_end_39_0_2" index="2" speed="13.89" length="37.84" width="3.66" shape="1073.16,162.63 1109.40,168.49"/>
        <lane id=":j_merge_end_39_0_3" index="3" speed="13.89" length="37.84" width="3.66" shape="1072.59,166.24 1108.83,172.10"/>
        <lane id=":j_merge_end_39_0_4" index="4" disallow="all" speed="13.89" length="37.84" width="3.66" shape="1072.01,169.86 1108.26,175.72"/>
    </edge>
    <edge id=":j_merge_end_40_0" function="internal">
        <lane id=":j_merge_end_40_0_0" index="0" disallow="all" speed="13.89" length="47.84" width="3.66" shape="4787.66,847.58 4801.14,853.50 4808.66,861.58 4816.16,869.65 4829.55,875.53"/>
        <lane id=":j_merge_end_40_0_1" index="1" speed="13.89" length="47.84" width="3.66" shape="4786.07,854.73 4831.92,864.81"/>
        <lane id=":j_merge_end_40_0_2" index="2" speed="13.89" length="47.84" width="3.66" shape="4785.28,858.30 4831.13,868.38"/>
        <lane id=":j_merge_end_40_0_3" index="3" speed="13.89" length="47.84" width="3.66" shape="4784.48,861.87 4830.34,871.95"/>
        <lane id=":j_merge_end_40_0_4" index="4" disallow="all" speed="13.89" length="47.84" width="3.66" shape="4783.69,865.45 4829.55,875.53"/>
    </edge>
    <edge id=":j_merge_start_39_0" function="internal">
        <lane id=":j_merge_start_39_0_0" index="0" speed="13.89" length="61.95" width="3.66" shape="936.37,124.69 996.58,139.28"/>
    </edge>
    <edge id=":j_merge_start_39_1" function="internal">
        <lane id=":j_merge_start_39_1_0" index="0" speed="13.89" length="61.81" width="3.66" shape="934.42,136.78 995.42,146.50"/>
        <lane id=":j_merge_start_39_1_1" index="1" speed="13.89" length="61.81" width="3.66" shape="933.81,140.39 994.84,150.12"/>
        <lane id=":j_merge_start_39_1_2" index="2" speed="13.89" length="61.81" width="3.66" shape="933.21,144.00 994.27,153.73"/>
        <lane id=":j_merge_start_39_1_3" index="3" disallow="all" speed="13.89" length="61.81" width="3.66" shape="932.60,147.61 993.69,157.35"/>
    </edge>
    <edge id=":j_merge_start_40_0" function="internal">
        <lane id=":j_merge_start_40_0_0" index="0" speed="13.89" length="65.67" width="3.66" shape="4626.12,807.02 4689.03,825.84"/>
    </edge>
    <edge id=":j_merge_start_40_1" function="internal">
        <lane id=":j_merge_start_40_1_0" index="0" speed="13.89" length="65.47" width="3.66" shape="4623.57,818.87 4687.48,833.00"/>
        <lane id=":j_merge_start_40_1_1" index="1" speed="13.89" length="65.47" width="3.66" shape="4622.78,822.44 4686.70,836.57"/>
        <lane id=":j_merge_start_40_1_2" index="2" speed="13.89" length="65.47" width="3.66" shape="4621.99,826.01 4685.93,840.15"/>
        <lane id=":j_merge_start_40_1_3" index="3" disallow="all" speed="13.89" length="65.47" width="3.66" shape="4621.20,829.59 4685.15,843.73"/>
    </edge>
    <edge id=":junction_41_0" function="internal">
        <lane id=":junction_41_0_0" index="0" speed="13.89" length="97.27" width="3.66" shape="8106.02,910.15 8202.00,894.76"/>
        <lane id=":junction_41_0_1" index="1" speed="13.89" length="97.27" width="3.66" shape="8106.02,910.15 8202.63,898.36"/>
    </edge>
    <edge id=":junction_41_2" function="internal">
        <lane id=":junction_41_2_0" index="0" speed="13.89" length="96.68" width="3.66" shape="8106.92,913.83 8202.00,894.76"/>
        <lane id=":junction_41_2_1" index="1" speed="13.89" length="96.68" width="3.66" shape="8107.75,917.40 8202.63,898.36"/>
        <lane id=":junction_41_2_2" index="2" speed="13.89" length="96.68" width="3.66" shape="8108.57,920.97 8203.27,901.97"/>
        <lane id=":junction_41_2_3" index="3" disallow="all" speed="13.89" length="96.68" width="3.66" shape="8109.40,924.53 8203.90,905.57"/>
    </edge>
    <edge id=":junction_97_0" function="internal">
        <lane id=":junction_97_0_0" index="0" speed="13.89" length="83.04" width="3.66" shape="2491.48,386.36 2574.00,395.60"/>
    </edge>
    <edge id=":junction_97_1" function="internal">
        <lane id=":junction_97_1_0" index="0" speed="13.89" length="83.54" width="3.66" shape="2491.48,386.36 2573.96,399.59"/>
        <lane id=":junction_97_1_1" index="1" speed="13.89" length="83.54" width="3.66" shape="2490.89,389.97 2573.37,403.20"/>
        <lane id=":junction_97_1_2" index="2" speed="13.89" length="83.54" width="3.66" shape="2490.30,393.59 2572.78,406.82"/>
        <lane id=":junction_97_1_3" index="3" disallow="all" speed="13.89" length="83.54" width="3.66" shape="2489.71,397.20 2572.19,410.43"/>
    </edge>
    <edge id=":junction_99_0" function="internal">
        <lane id=":junction_99_0_0" index="0" speed="13.89" length="153.15" width="3.66" shape="6075.89,1141.72 6225.90,1172.61"/>
    </edge>
    <edge id=":junction_99_1" function="internal">
        <lane id=":junction_99_1_0" index="0" speed="13.89" length="153.36" width="3.66" shape="6075.89,1141.72 6225.29,1176.37"/>
        <lane id=":junction_99_1_1" index="1" speed="13.89" length="153.36" width="3.66" shape="6075.07,1145.29 6224.47,1179.94"/>
        <lane id=":junction_99_1_2" index="2" speed="13.89" length="153.36" width="3.66" shape="6074.25,1148.85 6223.64,1183.50"/>
        <lane id=":junction_99_1_3" index="3" disallow="all" speed="13.89" length="153.36" width="3.66" shape="6073.43,1152.42 6222.81,1187.07"/>
    </edge>
    <edge id=":node_680_end_0" function="internal">
        <lane id=":node_680_end_0_0" index="0" speed="13.89" length="0.30" width="3.66" shape="839.12,121.41 839.42,121.46"/>
        <lane id=":node_680_end_0_1" index="1" speed="13.89" length="0.30" width="3.66" shape="838.55,125.02 838.85,125.07"/>
        <lane id=":node_680_end_0_2" index="2" speed="13.89" length="0.30" width="3.66" shape="837.98,128.64 838.27,128.69"/>
    </edge>
    <edge id=":node_680_start_0" function="internal">
        <lane id=":node_680_start_0_0" index="0" speed="13.89" length="0.30" width="3.66" shape="801.47,115.45 801.78,115.49"/>
        <lane id=":node_680_start_0_1" index="1" speed="13.89" length="0.30" width="3.66" shape="800.91,119.06 801.20,119.11"/>
        <lane id=":node_680_start_0_2" index="2" speed="13.89" length="0.30" width="3.66" shape="800.34,122.68 800.63,122.72"/>
    </edge>
    <edge id=":node_683_end_0" function="internal">
        <lane id=":node_683_end_0_0" index="0" speed="13.89" length="0.30" width="3.66" shape="1729.68,264.20 1729.98,264.25"/>
        <lane id=":node_683_end_0_1" index="1" speed="13.89" length="0.30" width="3.66" shape="1729.10,267.81 1729.40,267.86"/>
        <lane id=":node_683_end_0_2" index="2" speed="13.89" length="0.30" width="3.66" shape="1728.53,271.43 1728.82,271.48"/>
    </edge>
    <edge id=":node_683_start_0" function="internal">
        <lane id=":node_683_start_0_0" index="0" speed="13.89" length="8.03" width="3.66" shape="1453.29,219.75 1461.20,221.14"/>
    </edge>
    <edge id=":node_683_start_1" function="internal">
        <lane id=":node_683_start_1_0" index="0" speed="13.89" length="8.00" width="3.66" shape="1453.31,219.86 1461.20,221.14"/>
        <lane id=":node_683_start_1_1" index="1" speed="13.89" length="8.00" width="3.66" shape="1452.72,223.47 1460.62,224.75"/>
        <lane id=":node_683_start_1_2" index="2" speed="13.89" length="8.00" width="3.66" shape="1452.14,227.08 1460.03,228.36"/>
    </edge>
    <edge id=":node_684_start_0" function="internal">
        <lane id=":node_684_start_0_0" index="0" speed="13.89" length="0.30" width="3.66" shape="793.40,114.18 793.68,114.23"/>
        <lane id=":node_684_start_0_1" index="1" speed="13.89" length="0.30" width="3.66" shape="792.82,117.79 793.11,117.84"/>
        <lane id=":node_684_start_0_2" index="2" speed="13.89" length="0.30" width="3.66" shape="792.23,121.41 792.54,121.46"/>
    </edge>
    <edge id=":node_686_end_0" function="internal">
        <lane id=":node_686_end_0_0" index="0" speed="13.89" length="0.10" width="3.66" shape="1778.56,272.02 1778.69,272.04"/>
        <lane id=":node_686_end_0_1" index="1" speed="13.89" length="0.10" width="3.66" shape="1778.00,275.64 1778.10,275.65"/>
        <lane id=":node_686_end_0_2" index="2" speed="13.89" length="0.10" width="3.66" shape="1777.45,279.26 1777.51,279.27"/>
    </edge>
    <edge id=":node_686_start_0" function="internal">
        <lane id=":node_686_start_0_0" index="0" speed="13.89" length="0.30" width="3.66" shape="1737.59,265.46 1737.89,265.51"/>
        <lane id=":node_686_start_0_1" index="1" speed="13.89" length="0.30" width="3.66" shape="1737.01,269.08 1737.31,269.12"/>
        <lane id=":node_686_start_0_2" index="2" speed="13.89" length="0.30" width="3.66" shape="1736.44,272.69 1736.72,272.74"/>
    </edge>
    <edge id=":node_687_start_0" function="internal">
        <lane id=":node_687_start_0_0" index="0" speed="13.89" length="0.30" width="3.66" shape="146.34,10.46 146.66,10.51"/>
        <lane id=":node_687_start_0_1" index="1" speed="13.89" length="0.30" width="3.66" shape="145.80,14.08 146.09,14.12"/>
        <lane id=":node_687_start_0_2" index="2" speed="13.89" length="0.30" width="3.66" shape="145.26,17.70 145.52,17.74"/>
    </edge>
    <edge id=":node_693_end_0" function="internal">
        <lane id=":node_693_end_0_0" index="0" speed="13.89" length="3.32" width="3.66" shape="1273.48,187.29 1274.46,187.37 1275.14,187.34 1275.81,187.31 1276.79,187.42"/>
    </edge>
    <edge id=":node_693_end_1" function="internal">
        <lane id=":node_693_end_1_0" index="0" speed="13.89" length="2.99" width="3.66" shape="1272.91,190.90 1275.87,191.38"/>
        <lane id=":node_693_end_1_1" index="1" speed="13.89" length="2.99" width="3.66" shape="1272.33,194.52 1275.28,194.99"/>
        <lane id=":node_693_end_1_2" index="2" speed="13.89" length="2.99" width="3.66" shape="1271.75,198.13 1274.70,198.60"/>
    </edge>
    <edge id=":node_693_start_0" function="internal">
        <lane id=":node_693_start_0_0" index="0" speed="13.89" length="0.30" width="3.66" shape="1158.25,168.81 1158.57,168.86"/>
        <lane id=":node_693_start_0_1" index="1" speed="13.89" length="0.30" width="3.66" shape="1157.68,172.42 1157.98,172.47"/>
        <lane id=":node_693_start_0_2" index="2" speed="13.89" length="0.30" width="3.66" shape="1157.11,176.04 1157.39,176.08"/>
        <lane id=":node_693_start_0_3" index="3" speed="13.89" length="0.30" width="3.66" shape="1156.54,179.65 1156.80,179.70"/>
    </edge>
    <edge id=":node_703_end_0" function="internal">
        <lane id=":node_703_end_0_0" index="0" speed="13.89" length="0.30" width="3.66" shape="5450.85,1001.38 5451.13,1001.44"/>
        <lane id=":node_703_end_0_1" index="1" speed="13.89" length="0.30" width="3.66" shape="5450.06,1004.95 5450.35,1005.02"/>
        <lane id=":node_703_end_0_2" index="2" speed="13.89" length="0.30" width="3.66" shape="5449.27,1008.53 5449.57,1008.59"/>
    </edge>
    <edge id=":node_703_start_0" function="internal">
        <lane id=":node_703_start_0_0" index="0" speed="13.89" length="0.30" width="3.66" shape="5277.48,963.02 5277.77,963.09"/>
        <lane id=":node_703_start_0_1" index="1" speed="13.89" length="0.30" width="3.66" shape="5276.69,966.60 5276.98,966.66"/>
        <lane id=":node_703_start_0_2" index="2" speed="13.89" length="0.30" width="3.66" shape="5275.90,970.17 5276.19,970.24"/>
    </edge>
    <edge id=":node_704_end_0" function="internal">
        <lane id=":node_704_end_0_0" index="0" speed="13.89" length="0.30" width="3.66" shape="7248.09,1179.96 7248.37,1179.87"/>
        <lane id=":node_704_end_0_1" index="1" speed="13.89" length="0.30" width="3.66" shape="7249.21,1183.45 7249.49,1183.35"/>
        <lane id=":node_704_end_0_2" index="2" speed="13.89" length="0.30" width="3.66" shape="7250.32,1186.93 7250.61,1186.84"/>
    </edge>
    <edge id=":node_704_start_0" function="internal">
        <lane id=":node_704_start_0_0" index="0" speed="13.89" length="0.30" width="3.66" shape="7142.52,1213.50 7142.80,1213.41"/>
        <lane id=":node_704_start_0_1" index="1" speed="13.89" length="0.30" width="3.66" shape="7143.62,1216.99 7143.91,1216.90"/>
        <lane id=":node_704_start_0_2" index="2" speed="13.89" length="0.30" width="3.66" shape="7144.72,1220.48 7145.01,1220.39"/>
    </edge>
    <edge id=":node_705_end_0" function="internal">
        <lane id=":node_705_end_0_0" index="0" speed="13.89" length="0.30" width="3.66" shape="5499.17,1012.00 5499.46,1012.07"/>
        <lane id=":node_705_end_0_1" index="1" speed="13.89" length="0.30" width="3.66" shape="5498.38,1015.58 5498.68,1015.64"/>
        <lane id=":node_705_end_0_2" index="2" speed="13.89" length="0.30" width="3.66" shape="5497.60,1019.15 5497.89,1019.21"/>
    </edge>
    <edge id=":node_705_start_0" function="internal">
        <lane id=":node_705_start_0_0" index="0" speed="13.89" length="0.30" width="3.66" shape="5459.01,1003.17 5459.30,1003.23"/>
        <lane id=":node_705_start_0_1" index="1" speed="13.89" length="0.30" width="3.66" shape="5458.22,1006.74 5458.52,1006.81"/>
        <lane id=":node_705_start_0_2" index="2" speed="13.89" length="0.30" width="3.66" shape="5457.44,1010.32 5457.74,1010.38"/>
    </edge>
    <edge id=":node_706_end_0" function="internal">
        <lane id=":node_706_end_0_0" index="0" speed="13.89" length="0.30" width="3.66" shape="4884.84,872.77 4885.13,872.83"/>
        <lane id=":node_706_end_0_1" index="1" speed="13.89" length="0.30" width="3.66" shape="4884.05,876.34 4884.34,876.41"/>
        <lane id=":node_706_end_0_2" index="2" speed="13.89" length="0.30" width="3.66" shape="4883.26,879.92 4883.55,879.98"/>
        <lane id=":node_706_end_0_3" index="3" speed="13.89" length="0.30" width="3.66" shape="4882.47,883.49 4882.76,883.56"/>
    </edge>
    <edge id=":node_708_start_0" function="internal">
        <lane id=":node_708_start_0_0" index="0" speed="13.89" length="0.30" width="3.66" shape="6014.83,1127.64 6015.13,1127.71"/>
        <lane id=":node_708_start_0_1" index="1" speed="13.89" length="0.30" width="3.66" shape="6014.01,1131.20 6014.30,1131.27"/>
        <lane id=":node_708_start_0_2" index="2" speed="13.89" length="0.30" width="3.66" shape="6013.19,1134.77 6013.48,1134.84"/>
    </edge>
    <edge id=":node_710_start_0" function="internal">
        <lane id=":node_710_start_0_0" index="0" speed="13.89" length="3.00" width="3.66" shape="7793.61,1006.97 7796.47,1006.06"/>
        <lane id=":node_710_start_0_1" index="1" speed="13.89" length="3.00" width="3.66" shape="7794.71,1010.46 7797.57,1009.56"/>
        <lane id=":node_710_start_0_2" index="2" speed="13.89" length="3.00" width="3.66" shape="7795.81,1013.95 7798.67,1013.05"/>
    </edge>
    <edge id=":node_711_start_0" function="internal">
        <lane id=":node_711_start_0_0" index="0" speed="13.89" length="8.06" width="3.66" shape="5152.61,935.24 5160.40,937.30"/>
    </edge>
    <edge id=":node_711_start_1" function="internal">
        <lane id=":node_711_start_1_0" index="0" speed="13.89" length="8.00" width="3.66" shape="5152.59,935.57 5160.40,937.30"/>
        <lane id=":node_711_start_1_1" index="1" speed="13.89" length="8.00" width="3.66" shape="5151.80,939.15 5159.61,940.87"/>
        <lane id=":node_711_start_1_2" index="2" speed="13.89" length="8.00" width="3.66" shape="5151.01,942.72 5158.82,944.45"/>
    </edge>
    <edge id=":node_713_start_0" function="internal">
        <lane id=":node_713_start_0_0" index="0" speed="13.89" length="0.30" width="3.66" shape="4592.42,812.00 4592.71,812.06"/>
        <lane id=":node_713_start_0_1" index="1" speed="13.89" length="0.30" width="3.66" shape="4591.64,815.57 4591.93,815.64"/>
        <lane id=":node_713_start_0_2" index="2" speed="13.89" length="0.30" width="3.66" shape="4590.85,819.15 4591.15,819.21"/>
    </edge>
    <edge id=":node_715_start_0" function="internal">
        <lane id=":node_715_start_0_0" index="0" speed="13.89" length="0.30" width="3.66" shape="7055.39,1237.77 7055.68,1237.70"/>
        <lane id=":node_715_start_0_1" index="1" speed="13.89" length="0.30" width="3.66" shape="7056.24,1241.33 7056.53,1241.26"/>
        <lane id=":node_715_start_0_2" index="2" speed="13.89" length="0.30" width="3.66" shape="7057.10,1244.89 7057.39,1244.82"/>
    </edge>
    <edge id=":node_717_start_0" function="internal">
        <lane id=":node_717_start_0_0" index="0" speed="13.89" length="3.00" width="3.66" shape="6332.43,1201.11 6335.35,1201.78"/>
        <lane id=":node_717_start_0_1" index="1" speed="13.89" length="3.00" width="3.66" shape="6331.61,1204.68 6334.54,1205.35"/>
        <lane id=":node_717_start_0_2" index="2" speed="13.89" length="3.00" width="3.66" shape="6330.79,1208.25 6333.72,1208.92"/>
    </edge>
    <edge id=":node_719_start_0" function="internal">
        <lane id=":node_719_start_0_0" index="0" speed="13.89" length="0.30" width="3.66" shape="6006.97,1125.83 6007.26,1125.90"/>
        <lane id=":node_719_start_0_1" index="1" speed="13.89" length="0.30" width="3.66" shape="6006.15,1129.39 6006.44,1129.46"/>
        <lane id=":node_719_start_0_2" index="2" speed="13.89" length="0.30" width="3.66" shape="6005.33,1132.96 6005.62,1133.03"/>
    </edge>
    <edge id=":node_721_end_0" function="internal">
        <lane id=":node_721_end_0_0" index="0" speed="13.89" length="3.00" width="3.66" shape="2666.00,414.32 2668.97,414.79"/>
        <lane id=":node_721_end_0_1" index="1" speed="13.89" length="3.00" width="3.66" shape="2665.43,417.93 2668.39,418.41"/>
        <lane id=":node_721_end_0_2" index="2" speed="13.89" length="3.00" width="3.66" shape="2664.86,421.55 2667.81,422.02"/>
    </edge>
    <edge id=":node_722_start_0" function="internal">
        <lane id=":node_722_start_0_0" index="0" speed="13.89" length="0.30" width="3.66" shape="4584.78,810.32 4585.07,810.38"/>
        <lane id=":node_722_start_0_1" index="1" speed="13.89" length="0.30" width="3.66" shape="4583.99,813.89 4584.29,813.96"/>
        <lane id=":node_722_start_0_2" index="2" speed="13.89" length="0.30" width="3.66" shape="4583.21,817.47 4583.50,817.53"/>
    </edge>
    <edge id=":node_723_start_0" function="internal">
        <lane id=":node_723_start_0_0" index="0" speed="13.89" length="0.30" width="3.66" shape="5927.02,1107.26 5927.31,1107.33"/>
        <lane id=":node_723_start_0_1" index="1" speed="13.89" length="0.30" width="3.66" shape="5926.19,1110.83 5926.48,1110.89"/>
        <lane id=":node_723_start_0_2" index="2" speed="13.89" length="0.30" width="3.66" shape="5925.36,1114.39 5925.66,1114.46"/>
    </edge>
    <edge id=":node_724_start_0" function="internal">
        <lane id=":node_724_start_0_0" index="0" speed="13.89" length="3.40" width="3.66" shape="5040.30,907.04 5043.58,907.93"/>
    </edge>
    <edge id=":node_724_start_1" function="internal">
        <lane id=":node_724_start_1_0" index="0" speed="13.89" length="3.00" width="3.66" shape="5039.53,910.61 5042.46,911.25"/>
        <lane id=":node_724_start_1_1" index="1" speed="13.89" length="3.00" width="3.66" shape="5038.75,914.19 5041.68,914.83"/>
        <lane id=":node_724_start_1_2" index="2" speed="13.89" length="3.00" width="3.66" shape="5037.98,917.77 5040.90,918.40"/>
    </edge>
    <edge id=":node_727_end_0" function="internal">
        <lane id=":node_727_end_0_0" index="0" speed="13.89" length="0.30" width="3.66" shape="5875.35,1095.32 5875.65,1095.39"/>
        <lane id=":node_727_end_0_1" index="1" speed="13.89" length="0.30" width="3.66" shape="5874.53,1098.88 5874.82,1098.95"/>
        <lane id=":node_727_end_0_2" index="2" speed="13.89" length="0.30" width="3.66" shape="5873.71,1102.45 5874.00,1102.52"/>
    </edge>
    <edge id=":node_728_start_0" function="internal">
        <lane id=":node_728_start_0_0" index="0" speed="13.89" length="0.30" width="3.66" shape="7351.26,1147.33 7351.55,1147.24"/>
        <lane id=":node_728_start_0_1" index="1" speed="13.89" length="0.30" width="3.66" shape="7352.36,1150.82 7352.64,1150.73"/>
        <lane id=":node_728_start_0_2" index="2" speed="13.89" length="0.30" width="3.66" shape="7353.45,1154.31 7353.74,1154.22"/>
    </edge>
    <edge id=":node_732_start_0" function="internal">
        <lane id=":node_732_start_0_0" index="0" speed="13.89" length="0.10" width="3.66" shape="5883.55,1097.21 5883.55,1097.21"/>
        <lane id=":node_732_start_0_1" index="1" speed="13.89" length="0.10" width="3.66" shape="5882.72,1100.78 5882.72,1100.78"/>
        <lane id=":node_732_start_0_2" index="2" speed="13.89" length="0.10" width="3.66" shape="5881.90,1104.35 5881.90,1104.35"/>
    </edge>
    <edge id=":node_733_start_0" function="internal">
        <lane id=":node_733_start_0_0" index="0" speed="13.89" length="0.30" width="3.66" shape="2668.64,404.88 2668.94,404.91"/>
    </edge>
    <edge id=":node_736_start_0" function="internal">
        <lane id=":node_736_start_0_0" index="0" speed="13.89" length="0.30" width="3.66" shape="6335.78,1191.02 6336.07,1191.07"/>
    </edge>

    <edge id="680.0" from="node_680_start" to="node_680_end" priority="-1" type="town" shape="799.63,128.12 822.23,131.71 837.26,134.08">
        <lane id="680.0_0" index="0" disallow="all" speed="13.89" length="37.81" width="3.66" shape="802.35,111.88 824.81,115.45 839.69,117.79" type="shoulder"/>
        <lane id="680.0_1" index="1" speed="13.89" length="37.81" width="3.66" shape="801.78,115.49 824.23,119.06 839.12,121.41"/>
        <lane id="680.0_2" index="2" speed="13.89" length="37.81" width="3.66" shape="801.20,119.11 823.66,122.68 838.55,125.02"/>
        <lane id="680.0_3" index="3" speed="13.89" length="37.81" width="3.66" shape="800.63,122.72 823.09,126.29 837.98,128.64"/>
        <lane id="680.0_4" index="4" disallow="all" speed="13.89" length="37.81" width="3.66" shape="800.06,126.34 822.52,129.91 837.41,132.25" type="shoulder"/>
    </edge>
    <edge id="683.0" from="node_683_start" to="node_683_end" priority="-1" type="town" shape="1455.21,233.14 1483.56,237.73 1514.41,242.67 1549.29,248.24 1581.77,253.50 1612.17,258.41 1614.90,258.77 1634.55,262.25 1646.71,264.34 1686.41,270.25 1727.81,276.87">
        <lane id="683.0_0" index="0" disallow="all" speed="13.89" length="271.92" width="3.66" shape="1461.79,217.52 1486.18,221.47 1517.01,226.41 1551.90,231.98 1584.40,237.25 1614.76,242.15 1617.41,242.49 1637.39,246.03 1649.32,248.08 1688.92,253.98 1730.26,260.59" type="shoulder"/>
        <lane id="683.0_1" index="1" speed="13.89" length="271.92" width="3.66" shape="1461.20,221.14 1485.60,225.09 1516.43,230.02 1551.32,235.60 1583.82,240.86 1614.18,245.76 1616.86,246.11 1636.76,249.64 1648.74,251.69 1688.36,257.59 1729.68,264.20"/>
        <lane id="683.0_2" index="2" speed="13.89" length="271.92" width="3.66" shape="1460.62,224.75 1485.01,228.70 1515.85,233.64 1550.74,239.21 1583.23,244.47 1613.61,249.38 1616.30,249.73 1636.13,253.24 1648.16,255.31 1687.81,261.21 1729.10,267.81"/>
        <lane id="683.0_3" index="3" speed="13.89" length="271.92" width="3.66" shape="1460.03,228.36 1484.43,232.31 1515.28,237.25 1550.16,242.82 1582.65,248.08 1613.03,252.99 1615.74,253.35 1635.50,256.85 1647.58,258.92 1687.25,264.83 1728.53,271.43"/>
        <lane id="683.0_4" index="4" disallow="all" speed="13.89" length="271.92" width="3.66" shape="1459.45,231.98 1483.85,235.93 1514.70,240.87 1549.58,246.44 1582.06,251.70 1612.46,256.61 1615.18,256.96 1634.87,260.45 1647.00,262.54 1686.69,268.45 1727.95,275.04" type="shoulder"/>
    </edge>
    <edge id="684.0" from="node_684_start" to="node_680_start" priority="-1" type="town">
        <lane id="684.0_0" index="0" disallow="all" speed="13.89" length="7.89" width="3.66" shape="794.24,110.61 802.04,111.83" type="shoulder"/>
        <lane id="684.0_1" index="1" speed="13.89" length="7.89" width="3.66" shape="793.68,114.23 801.47,115.45"/>
        <lane id="684.0_2" index="2" speed="13.89" length="7.89" width="3.66" shape="793.11,117.84 800.91,119.06"/>
        <lane id="684.0_3" index="3" speed="13.89" length="7.89" width="3.66" shape="792.54,121.46 800.34,122.68"/>
        <lane id="684.0_4" index="4" disallow="all" speed="13.89" length="7.89" width="3.66" shape="791.98,125.07 799.77,126.29" type="shoulder"/>
    </edge>
    <edge id="686.0" from="node_686_start" to="node_686_end" priority="-1" type="town" shape="1735.71,278.13 1753.13,280.95 1770.67,283.77 1776.62,284.68">
        <lane id="686.0_0" index="0" disallow="all" speed="13.89" length="41.21" width="3.66" shape="1738.48,261.90 1755.75,264.69 1773.25,267.51 1779.11,268.40" type="shoulder"/>
        <lane id="686.0_1" index="1" speed="13.89" length="41.21" width="3.66" shape="1737.89,265.51 1755.17,268.31 1772.68,271.12 1778.56,272.02"/>
        <lane id="686.0_2" index="2" speed="13.89" length="41.21" width="3.66" shape="1737.31,269.12 1754.59,271.92 1772.10,274.74 1778.00,275.64"/>
        <lane id="686.0_3" index="3" speed="13.89" length="41.21" width="3.66" shape="1736.72,272.74 1754.00,275.53 1771.53,278.35 1777.45,279.26"/>
        <lane id="686.0_4" index="4" disallow="all" speed="13.89" length="41.21" width="3.66" shape="1736.14,276.35 1753.42,279.15 1770.96,281.97 1776.90,282.87" type="shoulder"/>
    </edge>
    <edge id="687.0" from="node_687_start" to="node_684_start" priority="-1" type="town" shape="144.55,23.14 172.58,27.59 200.72,32.22 239.72,38.44 274.74,44.02 306.84,49.16 341.99,54.76 369.71,59.24 391.84,62.65 415.70,66.57 436.96,70.01 456.88,73.22 480.57,76.98 503.44,80.65 524.70,84.07 545.56,87.40 550.64,88.22 568.50,91.08 587.56,94.11 608.92,97.54 631.11,101.13 649.13,103.97 654.51,104.84 665.46,106.61 672.83,107.79 683.46,109.49 689.29,110.43 698.74,111.97 700.99,112.34 721.23,115.56 742.52,118.98 762.65,122.20 782.00,125.30 791.52,126.85">
        <lane id="687.0_0" index="0" disallow="all" speed="13.89" length="654.98" width="3.66" shape="147.24,6.89 175.21,11.33 203.35,15.97 242.31,22.18 277.34,27.76 309.44,32.90 344.60,38.50 372.28,42.98 394.43,46.39 418.35,50.32 439.59,53.75 459.48,56.96 483.17,60.72 506.05,64.39 527.31,67.81 548.16,71.14 553.25,71.96 571.09,74.82 590.16,77.85 611.54,81.28 633.71,84.87 651.71,87.71 657.14,88.59 668.08,90.35 675.43,91.53 686.07,93.23 691.93,94.18 701.39,95.72 703.62,96.09 723.83,99.30 745.13,102.72 765.25,105.94 784.62,109.04 793.99,110.57" type="shoulder"/>
        <lane id="687.0_1" index="1" speed="13.89" length="654.98" width="3.66" shape="146.66,10.51 174.62,14.95 202.77,19.58 241.74,25.79 276.76,31.37 308.86,36.51 344.02,42.12 371.71,46.59 393.85,50.00 417.76,53.93 439.00,57.37 458.90,60.57 482.59,64.33 505.47,68.01 526.73,71.43 547.58,74.75 552.67,75.58 570.52,78.43 589.58,81.46 610.96,84.90 633.13,88.48 651.14,91.32 656.55,92.20 667.50,93.97 674.85,95.14 685.49,96.85 691.34,97.79 700.80,99.33 703.04,99.70 723.25,102.91 744.55,106.34 764.67,109.56 784.04,112.66 793.40,114.18"/>
        <lane id="687.0_2" index="2" speed="13.89" length="654.98" width="3.66" shape="146.09,14.12 174.04,18.56 202.18,23.19 241.16,29.41 276.18,34.99 308.28,40.13 343.44,45.73 371.14,50.21 393.28,53.62 417.17,57.54 438.42,60.98 458.32,64.19 482.01,67.95 504.89,71.62 526.15,75.04 547.01,78.37 552.09,79.19 569.94,82.05 589.00,85.08 610.38,88.51 632.55,92.10 650.56,94.94 655.97,95.81 666.91,97.58 674.28,98.76 684.91,100.46 690.76,101.40 700.21,102.94 702.45,103.31 722.67,106.53 743.97,109.95 764.10,113.17 783.46,116.27 792.82,117.79"/>