<?xml version='1.0' encoding='utf-8'?>
<connections>
    <connection from="863.0" to="867.0" fromLane="1" toLane="0" />
    <connection from="863.0" to="944.0" fromLane="3" toLane="2" />
    <connection from="863.0" to="944.0" fromLane="2" toLane="1" />
    <connection from="863.0" to="944.0" fromLane="4" toLane="3" />
    <connection from="863.0" to="944.0" fromLane="1" toLane="0" />
    <connection from="882.0" to="949.0" fromLane="4" toLane="3" />
    <connection from="882.0" to="949.0" fromLane="3" toLane="2" />
    <connection from="882.0" to="949.0" fromLane="2" toLane="1" />
    <connection from="882.0" to="949.0" fromLane="1" toLane="0" />
    <connection from="882.0" to="880.0" fromLane="1" toLane="0" />
    <connection from="886.0" to="merge_zone_48" fromLane="0" toLane="0" />
    <connection from="merge_zone_48" to="859.0" fromLane="0" toLane="5" dir="r" state="m" />
    <connection from="948.0" to="merge_zone_50" fromLane="2" toLane="3" />
    <connection from="948.0" to="merge_zone_50" fromLane="0" toLane="1" />
    <connection from="948.0" to="merge_zone_50" fromLane="1" toLane="2" />
    <connection from="948.0" to="merge_zone_50" fromLane="3" toLane="4" />
    <connection from="merge_zone_50" to="882.0" fromLane="3" toLane="3" />
    <connection from="merge_zone_50" to="882.0" fromLane="1" toLane="1" />
    <connection from="merge_zone_50" to="882.0" fromLane="2" toLane="2" />
    <connection from="merge_zone_50" to="882.0" fromLane="4" toLane="4" />
    <connection from="884.0" to="merge_zone_50" fromLane="0" toLane="0" />
    <connection from="merge_zone_50" to="882.0" fromLane="0" toLane="4" dir="r" state="m" />
</connections>