<?xml version='1.0' encoding='utf-8'?>
<edges>
    <edge id="859.0" from="j_merge_end_48" to="node_859_end" numLanes="6" speed="13.89" type="town" shape="580210.31,3264375.68 580247.49,3264392.06 580247.49,3264392.06 580284.65,3264408.45 580284.65,3264408.45 580321.78,3264424.94">
        <lane index="0" width="3.66" type="shoulder" disallow="all" />
        <lane index="1" width="3.66" />
        <lane index="2" width="3.66" />
        <lane index="3" width="3.66" />
        <lane index="4" width="3.66" />
        <lane index="5" width="3.66" type="shoulder" disallow="all" />
    </edge>
    <edge id="860.0" from="node_859_end" to="node_860_end" numLanes="4" speed="13.89" type="town" shape="580321.78,3264424.94 580353.57,3264438.95 580353.57,3264438.95 580385.35,3264452.96 580385.35,3264452.96 580417.14,3264466.97 580417.14,3264466.97 580448.93,3264480.97 580448.93,3264480.97 580480.72,3264494.95 580480.72,3264494.95 580512.48,3264508.98">
        <lane index="0" width="3.66" />
        <lane index="1" width="3.66" />
        <lane index="2" width="3.66" />
        <lane index="3" width="3.66" type="shoulder" disallow="all" />
    </edge>
    <edge id="861.0" from="node_859_end" to="node_860_end" numLanes="2" speed="13.89" type="town" shape="580328.11,3264411.48 580355.14,3264423.99 580355.14,3264423.99 580382.16,3264436.50 580382.16,3264436.50 580409.18,3264449.00 580409.18,3264449.00 580436.20,3264461.51 580436.20,3264461.51 580463.19,3264474.09 580463.19,3264474.09 580490.23,3264486.53 580490.23,3264486.53 580517.26,3264499.01">
        <lane index="0" width="3.66" type="shoulder" disallow="all" />
        <lane index="1" width="3.66" />
    </edge>
    <edge id="863.0" from="node_860_end" to="junction_107" numLanes="5" speed="13.89" type="town" shape="580512.48,3264508.98 580548.50,3264524.92 580548.50,3264524.92 580584.53,3264540.80 580584.53,3264540.80 580620.57,3264556.65 580620.57,3264556.65 580656.59,3264572.55 580656.59,3264572.55 580692.61,3264588.47 580692.61,3264588.47 580728.64,3264604.35 580728.64,3264604.35 580764.67,3264620.25 580764.67,3264620.25 580800.71,3264636.09 580800.71,3264636.09 580836.72,3264652.02 580836.72,3264652.02 580872.74,3264667.93 580872.74,3264667.93 580908.76,3264683.83">
        <lane index="0" width="3.66" type="shoulder" disallow="all" />
        <lane index="1" width="3.66" />
        <lane index="2" width="3.66" />
        <lane index="3" width="3.66" />
        <lane index="4" width="3.66" type="shoulder" disallow="all" />
    </edge>
    <edge id="866.0" from="node_866_start" to="node_866_end" numLanes="1" speed="13.89" type="town" shape="581070.87,3264735.66 581105.61,3264749.10 581105.61,3264749.10 581139.82,3264763.73">
        <lane index="0" width="3.66" />
    </edge>
    <edge id="867.0" from="junction_107" to="node_866_start" numLanes="1" speed="13.89" type="town" shape="581026.55,3264719.61 581036.54,3264723.36 581036.54,3264723.36 581062.68,3264732.65 581062.68,3264732.65 581070.87,3264735.66">
        <lane index="0" width="3.66" />
    </edge>
    <edge id="879.0" from="node_879_start" to="node_879_end" numLanes="1" speed="13.89" type="town" shape="584111.90,3266076.59 584149.67,3266091.02">
        <lane index="0" width="3.66" />
    </edge>
    <edge id="880.0" from="junction_109" to="node_879_start" numLanes="1" speed="13.89" type="town" shape="584047.19,3266051.81 584066.01,3266059.10 584066.01,3266059.10 584111.90,3266076.59">
        <lane index="0" width="3.66" />
    </edge>
    <edge id="882.0" from="j_merge_end_50" to="junction_109" numLanes="5" speed="13.89" type="town" shape="583492.90,3265823.54 583527.23,3265838.65 583527.23,3265838.65 583561.59,3265853.71 583561.59,3265853.71 583595.92,3265868.77 583595.92,3265868.77 583630.20,3265883.96 583630.20,3265883.96 583664.49,3265899.19 583664.49,3265899.19 583698.81,3265914.28 583698.81,3265914.28 583733.11,3265929.44 583733.11,3265929.44 583767.42,3265944.59 583767.42,3265944.59 583801.76,3265959.69 583801.76,3265959.69 583836.08,3265974.79 583836.08,3265974.79 583870.38,3265989.94 583870.38,3265989.94 583904.68,3266005.15 583904.68,3266005.15 583939.01,3266020.22">
        <lane index="0" width="3.66" type="shoulder" disallow="all" />
        <lane index="1" width="3.66" />
        <lane index="2" width="3.66" />
        <lane index="3" width="3.66" />
        <lane index="4" width="3.66" type="shoulder" disallow="all" />
    </edge>
    <edge id="884.0" from="node_884_start" to="j_merge_start_50" numLanes="1" speed="13.89" type="town" shape="583132.22,3265644.49 583161.34,3265659.42 583161.34,3265659.42 583189.15,3265672.57 583189.15,3265672.57 583206.76,3265681.09">
        <lane index="0" width="3.66" />
    </edge>
    <edge id="885.0" from="node_885_start" to="node_885_end" numLanes="1" speed="13.89" type="town" shape="579954.77,3264238.88 580001.78,3264260.51 580001.78,3264260.51 580074.28,3264293.38">
        <lane index="0" width="3.66" />
    </edge>
    <edge id="886.0" from="node_885_end" to="j_merge_start_48" numLanes="1" speed="13.89" type="town" shape="580074.28,3264293.38 580080.80,3264296.36 580080.80,3264296.36 580095.14,3264303.01">
        <lane index="0" width="3.66" />
    </edge>
    <edge id="944.0" from="junction_107" to="node_944_end" numLanes="4" speed="13.89" type="town" shape="581020.38,3264733.06 581057.48,3264749.40 581057.48,3264749.40 581094.57,3264765.77 581094.57,3264765.77 581131.67,3264782.15">
        <lane index="0" width="3.66" />
        <lane index="1" width="3.66" />
        <lane index="2" width="3.66" />
        <lane index="3" width="3.66" type="shoulder" disallow="all" />
    </edge>
    <edge id="945.0" from="node_945_start" to="node_945_end" numLanes="1" speed="13.89" type="town" shape="583084.16,3265621.31 583112.21,3265634.84">
        <lane index="0" width="3.66" />
    </edge>
    <edge id="946.0" from="node_945_end" to="node_884_start" numLanes="1" speed="13.89" type="town" shape="583112.21,3265634.84 583132.22,3265644.49">
        <lane index="0" width="3.66" />
    </edge>
    <edge id="947.0" from="node_944_end" to="node_947_end" numLanes="5" speed="13.89" type="town" shape="581131.67,3264782.15 581180.95,3264803.83 581180.95,3264803.83 581230.20,3264825.58 581230.20,3264825.58 581279.51,3264847.23 581279.51,3264847.23 581328.77,3264868.97 581328.77,3264868.97 581378.04,3264890.68 581378.04,3264890.68 581427.28,3264912.46 581427.28,3264912.46 581476.52,3264934.24 581476.52,3264934.24 581525.81,3264955.94 581525.81,3264955.94 581575.09,3264977.63 581575.09,3264977.63 581624.37,3264999.32 581624.37,3264999.32 581673.60,3265021.09 581673.60,3265021.09 581722.84,3265042.90 581722.84,3265042.90 581772.10,3265064.65 581772.10,3265064.65 581821.38,3265086.35 581821.38,3265086.35 581870.67,3265108.02 581870.67,3265108.02 581919.94,3265129.73 581919.94,3265129.73 581969.20,3265151.46 581969.20,3265151.46 582018.45,3265173.22 582018.45,3265173.22 582067.71,3265194.96 582067.71,3265194.96 582116.99,3265216.68 582116.99,3265216.68 582166.27,3265238.35 582166.27,3265238.35 582215.53,3265260.09 582215.53,3265260.09 582264.79,3265281.84 582264.79,3265281.84 582314.05,3265303.57 582314.05,3265303.57 582363.33,3265325.28 582363.33,3265325.28 582412.59,3265347.01 582412.59,3265347.01 582461.84,3265368.76 582461.84,3265368.76 582511.11,3265390.48 582511.11,3265390.48 582560.38,3265412.20 582560.38,3265412.20 582609.64,3265433.94 582609.64,3265433.94 582658.89,3265455.70 582658.89,3265455.70 582708.20,3265477.34 582708.20,3265477.34 582757.45,3265499.09 582757.45,3265499.09 582806.71,3265520.82 582806.71,3265520.82 582855.97,3265542.57 582855.97,3265542.57 582905.26,3265564.24 582905.26,3265564.24 582954.51,3265586.00 582954.51,3265586.00 583003.78,3265607.74 583003.78,3265607.74 583053.06,3265629.44 583053.06,3265629.44 583102.31,3265651.18 583102.31,3265651.18 583104.51,3265652.15">
        <lane index="0" width="3.66" type="shoulder" disallow="all" />
        <lane index="1" width="3.66" />
        <lane index="2" width="3.66" />
        <lane index="3" width="3.66" />
        <lane index="4" width="3.66" type="shoulder" disallow="all" />
    </edge>
    <edge id="948.0" from="node_947_end" to="j_merge_start_50" numLanes="4" speed="13.89" type="town" shape="583104.51,3265652.15 583151.57,3265672.93 583151.57,3265672.93 583200.85,3265694.62">
        <lane index="0" width="3.66" />
        <lane index="1" width="3.66" />
        <lane index="2" width="3.66" />
        <lane index="3" width="3.66" type="shoulder" disallow="all" />
    </edge>
    <edge id="949.0" from="junction_109" to="node_950_start" numLanes="4" speed="13.89" type="town" shape="584040.46,3266064.97 584079.80,3266082.32 584079.80,3266082.32 584119.17,3266099.65 584119.17,3266099.65 584158.54,3266116.96 584158.54,3266116.96 584197.88,3266134.30 584197.88,3266134.30 584237.21,3266151.70 584237.21,3266151.70 584276.56,3266169.06 584276.56,3266169.06 584315.94,3266186.36 584315.94,3266186.36 584355.24,3266203.75 584355.24,3266203.75 584394.59,3266221.18 584394.59,3266221.18 584433.95,3266238.48 584433.95,3266238.48 584473.34,3266255.78 584473.34,3266255.78 584481.83,3266259.40">
        <lane index="0" width="3.66" />
        <lane index="1" width="3.66" />
        <lane index="2" width="3.66" />
        <lane index="3" width="3.66" type="shoulder" disallow="all" />
    </edge>
    <edge id="merge_zone_48" from="j_merge_start_48" to="j_merge_end_48" numLanes="4" speed="13.89" name="Merge zone 48" type="highway_merge" shape="579634.41,3264121.84 579634.41,3264121.84 579672.85,3264138.68 579672.85,3264138.68 579711.23,3264155.62 579711.23,3264155.62 579749.62,3264172.56 579749.62,3264172.56 579788.01,3264189.48 579788.01,3264189.48 579826.38,3264206.44 579826.38,3264206.44 579864.78,3264223.37 579864.78,3264223.37 579903.16,3264240.30 579903.16,3264240.30 579941.53,3264257.27 579941.53,3264257.27 579979.90,3264274.25 579979.90,3264274.25 580018.31,3264291.17 580018.31,3264291.17 580056.72,3264308.04 580056.72,3264308.04 580095.11,3264324.95 580095.11,3264324.95 580133.51,3264341.88 580133.51,3264341.88 580171.91,3264358.79">
        <lane index="0" width="3.66" />
        <lane index="1" width="3.66" />
        <lane index="2" width="3.66" />
        <lane index="3" width="3.66" />
    </edge>
    <edge id="merge_zone_50" from="j_merge_start_50" to="j_merge_end_50" numLanes="5" speed="13.89" name="Merge zone 50" type="highway_merge" shape="583273.86,3265726.85 583273.86,3265726.85 583310.38,3265742.95 583310.38,3265742.95 583346.90,3265759.04 583346.90,3265759.04 583383.41,3265775.12 583383.41,3265775.12 583419.90,3265791.27 583419.90,3265791.27 583456.40,3265807.40">
        <lane index="0" width="3.66" />
        <lane index="1" width="3.66" />
        <lane index="2" width="3.66" />
        <lane index="3" width="3.66" />
        <lane index="4" width="3.66" type="shoulder" disallow="all" />
    </edge>
</edges>