<?xml version='1.0' encoding='utf-8'?>
<connections>
    <connection from="287.0" to="merge_zone_22" fromLane="0" toLane="0" />
    <connection from="merge_zone_22" to="269.0" fromLane="0" toLane="4" dir="r" state="m" />
    <connection from="271.0" to="merge_zone_22" fromLane="2" toLane="2" />
    <connection from="271.0" to="merge_zone_22" fromLane="1" toLane="1" />
    <connection from="merge_zone_22" to="269.0" fromLane="2" toLane="3" />
    <connection from="merge_zone_22" to="269.0" fromLane="1" toLane="2" />
    <connection from="merge_zone_22" to="269.0" fromLane="3" toLane="4" />
</connections>