<?xml version="1.0" encoding="UTF-8"?>

<!-- generated on 2025-10-19 17:33:44 by Eclipse SUMO netconvert Version 1.23.1
<netconvertConfiguration xmlns:xsi="http://www.w3.org/2001/XMLSchema-instance" xsi:noNamespaceSchemaLocation="http://sumo.dlr.de/xsd/netconvertConfiguration.xsd">

    <input>
        <node-files value="/home/sdai/harry/TeraSim/jupiter/wb/jupiter_wb_tiles/tile_0179/tile_0179.nod.xml"/>
        <edge-files value="/home/sdai/harry/TeraSim/jupiter/wb/jupiter_wb_tiles/tile_0179/tile_0179.edg.xml"/>
        <connection-files value="/home/sdai/harry/TeraSim/jupiter/wb/jupiter_wb_tiles/tile_0179/tile_0179.con.xml"/>
    </input>

    <output>
        <output-file value="/home/sdai/harry/TeraSim/jupiter/wb/jupiter_wb_tiles/tile_0179/tile_0179.net.xml"/>
        <output.street-names value="true"/>
        <output.original-names value="true"/>
    </output>

    <processing>
        <geometry.remove value="false"/>
        <geometry.min-dist value="0.5"/>
        <edges.join value="false"/>
    </processing>

    <junctions>
        <no-internal-links value="false"/>
        <no-turnarounds value="true"/>
        <junctions.join value="true"/>
        <junctions.join-dist value="10"/>
        <junctions.corner-detail value="5"/>
        <junctions.internal-link-detail value="5"/>
        <junctions.limit-turn-speed value="5.5"/>
        <rectangular-lane-cut value="true"/>
        <check-lane-foes.all value="true"/>
    </junctions>

</netconvertConfiguration>
-->

<net version="1.20" junctionCornerDetail="5" junctionLinkDetail="5" rectangularLaneCut="true" limitTurnSpeed="5.50" checkLaneFoesAll="1" xmlns:xsi="http://www.w3.org/2001/XMLSchema-instance" xsi:noNamespaceSchemaLocation="http://sumo.dlr.de/xsd/net_file.xsd">

    <location netOffset="-800998.42,-3298174.33" convBoundary="0.00,0.00,3253.87,131.02" origBoundary="0.00,0.00,804252.29,3298305.35" projParameter="!"/>

    <edge id=":j_merge_end_22_0" function="internal">
        <lane id=":j_merge_end_22_0_0" index="0" disallow="all" speed="13.89" length="9.75" width="3.66" shape="2596.59,91.03 2593.47,89.21 2592.72,85.41 2591.97,81.63 2588.86,79.86"/>
        <lane id=":j_merge_end_22_0_1" index="1" speed="13.89" length="9.75" width="3.66" shape="2596.70,87.37 2588.72,87.18"/>
        <lane id=":j_merge_end_22_0_2" index="2" speed="13.89" length="9.75" width="3.66" shape="2596.81,83.71 2588.79,83.52"/>
        <lane id=":j_merge_end_22_0_3" index="3" disallow="all" speed="13.89" length="9.75" width="3.66" shape="2596.92,80.06 2588.86,79.86"/>
    </edge>
    <edge id=":j_merge_start_22_0" function="internal">
        <lane id=":j_merge_start_22_0_0" index="0" speed="13.89" length="4.59" width="3.66" shape="2915.49,104.17 2912.42,100.76"/>
    </edge>
    <edge id=":j_merge_start_22_1" function="internal">
        <lane id=":j_merge_start_22_1_0" index="0" speed="13.89" length="3.03" width="3.66" shape="2915.55,96.76 2914.65,96.80 2914.04,96.93 2913.43,97.06 2912.53,97.10"/>
        <lane id=":j_merge_start_22_1_1" index="1" speed="13.89" length="3.03" width="3.66" shape="2915.63,93.10 2914.74,93.14 2914.14,93.28 2913.53,93.41 2912.64,93.45"/>
    </edge>

    <edge id="269.0" from="j_merge_end_22" to="junction_82" priority="-1" type="town" shape="2592.93,78.10 2574.77,77.76 1988.66,59.88 1333.81,40.02 1211.73,36.42">
        <lane id="269.0_0" index="0" disallow="all" speed="13.89" length="1377.89" width="3.66" shape="2588.58,94.49 2574.36,94.23 1988.16,76.34 1333.32,56.48 1211.24,52.89" type="shoulder"/>
        <lane id="269.0_1" index="1" speed="13.89" length="1377.89" width="3.66" shape="2588.65,90.83 2574.45,90.57 1988.27,72.69 1333.43,52.83 1211.35,49.23"/>
        <lane id="269.0_2" index="2" speed="13.89" length="1377.89" width="3.66" shape="2588.72,87.18 2574.54,86.91 1988.38,69.03 1333.54,49.17 1211.46,45.57"/>
        <lane id="269.0_3" index="3" speed="13.89" length="1377.89" width="3.66" shape="2588.79,83.52 2574.63,83.25 1988.49,65.37 1333.65,45.51 1211.56,41.91"/>
        <lane id="269.0_4" index="4" disallow="all" speed="13.89" length="1377.89" width="3.66" shape="2588.86,79.86 2574.72,79.59 1988.60,61.71 1333.76,41.85 1211.68,38.25" type="shoulder"/>
    </edge>
    <edge id="271.0" from="node_271_start" to="j_merge_start_22" priority="-1" type="town" shape="3092.13,92.61 2991.43,93.09 2914.12,91.23">
        <lane id="271.0_0" index="0" speed="13.89" length="176.63" width="3.66" shape="3092.17,101.76 2991.34,102.24 2915.46,100.42"/>
        <lane id="271.0_1" index="1" speed="13.89" length="176.63" width="3.66" shape="3092.16,98.10 2991.38,98.58 2915.55,96.76"/>
        <lane id="271.0_2" index="2" speed="13.89" length="176.63" width="3.66" shape="3092.14,94.44 2991.41,94.92 2915.63,93.10"/>
    </edge>
    <edge id="283.0" from="node_283_start" to="j_merge_start_21" priority="-1" type="town" shape="361.14,131.02 322.72,96.52 282.85,64.01 253.67,48.58 225.48,39.36 189.17,33.14 166.14,28.72 136.17,24.16 111.87,21.34 80.40,19.13 0.00,14.47">
        <lane id="283.0_0" index="0" speed="13.89" length="392.07" width="3.66" shape="359.92,132.38 321.53,97.91 281.83,65.55 252.95,50.27 225.04,41.14 188.84,34.94 165.83,30.53 135.93,25.98 111.70,23.16 80.28,20.96 -0.52,16.28"/>
    </edge>
    <edge id="287.0" from="node_287_start" to="j_merge_start_22" priority="-1" type="town" shape="3253.87,125.44 3240.71,125.82 3207.65,125.58 3175.60,124.87 3143.47,123.95 3114.85,122.32 3086.50,120.25 3054.11,117.18 2931.27,103.78 2913.80,102.18">
        <lane id="287.0_0" index="0" speed="13.89" length="339.53" width="3.66" shape="3253.93,127.27 3240.73,127.65 3207.62,127.41 3175.55,126.70 3143.39,125.78 3114.73,124.15 3086.35,122.08 3053.92,119.00 2931.09,105.60 2915.49,104.17"/>
    </edge>
    <edge id="merge_zone_22" from="j_merge_start_22" to="j_merge_end_22" name="Merge zone 22" priority="-1" type="highway_merge" shape="2914.26,88.00 2592.93,78.10">
        <lane id="merge_zone_22_0" index="0" speed="13.89" length="315.98" width="3.66" shape="2912.42,100.76 2596.59,91.03"/>
        <lane id="merge_zone_22_1" index="1" speed="13.89" length="315.98" width="3.66" shape="2912.53,97.10 2596.70,87.37"/>
        <lane id="merge_zone_22_2" index="2" speed="13.89" length="315.98" width="3.66" shape="2912.64,93.45 2596.81,83.71"/>
        <lane id="merge_zone_22_3" index="3" speed="13.89" length="315.98" width="3.66" shape="2912.76,89.79 2596.92,80.06"/>
    </edge>

    <junction id="j_merge_end_22" type="priority" x="2592.93" y="78.10" incLanes="merge_zone_22_0 merge_zone_22_1 merge_zone_22_2 merge_zone_22_3" intLanes=":j_merge_end_22_0_0 :j_merge_end_22_0_1 :j_merge_end_22_0_2 :j_merge_end_22_0_3" shape="2596.53,92.86 2596.98,78.23 2593.88,79.08 2592.90,79.94 2591.92,80.80 2590.66,81.45 2588.82,81.69 2588.62,92.66">
        <request index="0" response="1110" foes="1110" cont="0"/>
        <request index="1" response="0000" foes="0001" cont="0"/>
        <request index="2" response="0000" foes="0001" cont="0"/>
        <request index="3" response="0000" foes="0001" cont="0"/>
    </junction>
    <junction id="j_merge_start_21" type="dead_end" x="0.43" y="0.00" incLanes="283.0_0" intLanes="" shape="-0.62,18.10 -0.41,14.45"/>
    <junction id="j_merge_start_22" type="priority" x="2914.12" y="91.23" incLanes="287.0_0 271.0_0 271.0_1 271.0_2" intLanes=":j_merge_start_22_0_0 :j_merge_start_22_1_0 :j_merge_start_22_1_1" shape="2915.32,106.00 2915.68,91.27 2912.81,87.96 2912.36,102.59">
        <request index="0" response="000" foes="000" cont="0"/>
        <request index="1" response="000" foes="000" cont="0"/>
        <request index="2" response="000" foes="000" cont="0"/>
    </junction>
    <junction id="junction_82" type="dead_end" x="1211.73" y="36.42" incLanes="269.0_0 269.0_1 269.0_2 269.0_3 269.0_4" intLanes="" shape="1211.29,51.06 1211.62,40.08"/>
    <junction id="node_271_start" type="dead_end" x="3092.13" y="92.61" incLanes="" intLanes="" shape="3092.13,92.61 3092.18,103.59"/>
    <junction id="node_283_start" type="dead_end" x="361.14" y="131.02" incLanes="" intLanes="" shape="361.14,131.02 358.69,133.74"/>
    <junction id="node_287_start" type="dead_end" x="3253.87" y="125.44" incLanes="" intLanes="" shape="3253.87,125.44 3253.98,129.10"/>

    <connection from="271.0" to="merge_zone_22" fromLane="1" toLane="1" via=":j_merge_start_22_1_0" dir="s" state="M"/>
    <connection from="271.0" to="merge_zone_22" fromLane="2" toLane="2" via=":j_merge_start_22_1_1" dir="s" state="M"/>
    <connection from="287.0" to="merge_zone_22" fromLane="0" toLane="0" via=":j_merge_start_22_0_0" dir="s" state="M"/>
    <connection from="merge_zone_22" to="269.0" fromLane="0" toLane="4" via=":j_merge_end_22_0_0" dir="s" state="m"/>
    <connection from="merge_zone_22" to="269.0" fromLane="1" toLane="2" keepClear="0" via=":j_merge_end_22_0_1" dir="s" state="M"/>
    <connection from="merge_zone_22" to="269.0" fromLane="2" toLane="3" keepClear="0" via=":j_merge_end_22_0_2" dir="s" state="M"/>
    <connection from="merge_zone_22" to="269.0" fromLane="3" toLane="4" keepClear="0" via=":j_merge_end_22_0_3" dir="s" state="M"/>

    <connection from=":j_merge_end_22_0" to="269.0" fromLane="0" toLane="4" dir="s" state="M"/>
    <connection from=":j_merge_end_22_0" to="269.0" fromLane="1" toLane="2" dir="s" state="M"/>
    <connection from=":j_merge_end_22_0" to="269.0" fromLane="2" toLane="3" dir="s" state="M"/>
    <connection from=":j_merge_end_22_0" to="269.0" fromLane="3" toLane="4" dir="s" state="M"/>
    <connection from=":j_merge_start_22_0" to="merge_zone_22" fromLane="0" toLane="0" dir="s" state="M"/>
    <connection from=":j_merge_start_22_1" to="merge_zone_22" fromLane="0" toLane="1" dir="s" state="M"/>
    <connection from=":j_merge_start_22_1" to="merge_zone_22" fromLane="1" toLane="2" dir="s" state="M"/>

</net>
