<?xml version='1.0' encoding='utf-8'?>
<edges>
    <edge id="269.0" from="j_merge_end_22" to="junction_82" numLanes="5" speed="13.89" type="town" shape="803591.35,3298252.43 803573.19,3298252.09 803573.19,3298252.09 802987.08,3298234.21 802987.08,3298234.21 802332.23,3298214.35 802332.23,3298214.35 802210.15,3298210.75">
        <lane index="0" width="3.66" type="shoulder" disallow="all" />
        <lane index="1" width="3.66" />
        <lane index="2" width="3.66" />
        <lane index="3" width="3.66" />
        <lane index="4" width="3.66" type="shoulder" disallow="all" />
    </edge>
    <edge id="271.0" from="node_271_start" to="j_merge_start_22" numLanes="3" speed="13.89" type="town" shape="804090.55,3298266.94 803989.85,3298267.42 803989.85,3298267.42 803912.54,3298265.56">
        <lane index="0" width="3.66" />
        <lane index="1" width="3.66" />
        <lane index="2" width="3.66" />
    </edge>
    <edge id="283.0" from="node_283_start" to="j_merge_start_21" numLanes="1" speed="13.89" type="town" shape="801359.56,3298305.35 801321.14,3298270.85 801321.14,3298270.85 801281.27,3298238.34 801281.27,3298238.34 801252.09,3298222.91 801252.09,3298222.91 801223.90,3298213.69 801223.90,3298213.69 801187.59,3298207.47 801187.59,3298207.47 801164.56,3298203.05 801164.56,3298203.05 801134.59,3298198.49 801134.59,3298198.49 801110.29,3298195.67 801110.29,3298195.67 801078.82,3298193.46 801078.82,3298193.46 800998.42,3298188.80">
        <lane index="0" width="3.66" />
    </edge>
    <edge id="287.0" from="node_287_start" to="j_merge_start_22" numLanes="1" speed="13.89" type="town" shape="804252.29,3298299.77 804239.13,3298300.15 804239.13,3298300.15 804206.07,3298299.91 804206.07,3298299.91 804174.02,3298299.20 804174.02,3298299.20 804141.89,3298298.28 804141.89,3298298.28 804113.27,3298296.65 804113.27,3298296.65 804084.92,3298294.58 804084.92,3298294.58 804052.53,3298291.51 804052.53,3298291.51 803929.69,3298278.11 803929.69,3298278.11 803912.22,3298276.51">
        <lane index="0" width="3.66" />
    </edge>
    <edge id="merge_zone_22" from="j_merge_start_22" to="j_merge_end_22" numLanes="4" speed="13.89" name="Merge zone 22" type="highway_merge" shape="803912.68,3298262.33 803591.35,3298252.43">
        <lane index="0" width="3.66" />
        <lane index="1" width="3.66" />
        <lane index="2" width="3.66" />
        <lane index="3" width="3.66" />
    </edge>
</edges>