<?xml version='1.0' encoding='utf-8'?>
<edges>
    <edge id="293.0" from="node_293_start" to="junction_83" numLanes="5" speed="13.89" type="town" shape="791760.11,3298520.22 791733.39,3298519.16 791733.39,3298519.16 791709.96,3298517.34 791709.96,3298517.34 791693.20,3298515.76 791693.20,3298515.76 791372.60,3298477.89 791372.60,3298477.89 791218.85,3298459.38">
        <lane index="0" width="3.66" type="shoulder" disallow="all" />
        <lane index="1" width="3.66" />
        <lane index="2" width="3.66" />
        <lane index="3" width="3.66" />
        <lane index="4" width="3.66" type="shoulder" disallow="all" />
    </edge>
    <edge id="295.0" from="junction_83" to="node_295_end" numLanes="4" speed="13.89" type="town" shape="791120.47,3298445.72 791062.55,3298436.64">
        <lane index="0" width="3.66" />
        <lane index="1" width="3.66" />
        <lane index="2" width="3.66" />
        <lane index="3" width="3.66" type="shoulder" disallow="all" />
    </edge>
    <edge id="296.0" from="node_295_end" to="node_296_end" numLanes="5" speed="13.89" type="town" shape="791062.55,3298436.64 791025.74,3298430.43 791025.74,3298430.43 790948.87,3298416.37 790948.87,3298416.37 790887.27,3298404.06 790887.27,3298404.06 790843.19,3298394.75 790843.19,3298394.75 790807.39,3298386.70 790807.39,3298386.70 790762.25,3298376.19 790762.25,3298376.19 790722.17,3298366.43 790722.17,3298366.43 790679.39,3298355.58 790679.39,3298355.58 790602.32,3298334.76 790602.32,3298334.76 790524.02,3298311.99 790524.02,3298311.99 790184.66,3298209.69">
        <lane index="0" width="3.66" type="shoulder" disallow="all" />
        <lane index="1" width="3.66" />
        <lane index="2" width="3.66" />
        <lane index="3" width="3.66" />
        <lane index="4" width="3.66" type="shoulder" disallow="all" />
    </edge>
    <edge id="299.0" from="junction_83" to="node_299_end" numLanes="1" speed="13.89" type="town" shape="791118.15,3298461.02 791094.72,3298459.69 791094.72,3298459.69 791028.93,3298454.89 791028.93,3298454.89 790984.74,3298450.60 790984.74,3298450.60 790951.65,3298446.92 790951.65,3298446.92 790903.06,3298440.04 790903.06,3298440.04 790860.62,3298432.38">
        <lane index="0" width="3.66" />
    </edge>
    <edge id="799.0" from="j_merge_end_56" to="node_293_start" numLanes="5" speed="13.89" type="town" shape="792324.80,3298350.51 792250.15,3298394.94 792250.15,3298394.94 792237.44,3298402.27 792237.44,3298402.27 792211.74,3298416.30 792211.74,3298416.30 792183.00,3298430.77 792183.00,3298430.77 792154.35,3298443.87 792154.35,3298443.87 792132.55,3298453.11 792132.55,3298453.11 792113.91,3298460.58 792113.91,3298460.58 792088.02,3298470.02 792088.02,3298470.02 792073.59,3298474.92 792073.59,3298474.92 792058.18,3298479.75 792058.18,3298479.75 792032.93,3298487.25 792032.93,3298487.25 792011.06,3298493.04 792011.06,3298493.04 791991.94,3298497.70 791991.94,3298497.70 791970.72,3298502.31 791970.72,3298502.31 791950.27,3298506.22 791950.27,3298506.22 791928.51,3298509.90 791928.51,3298509.90 791906.87,3298513.04 791906.87,3298513.04 791889.61,3298515.03 791889.61,3298515.03 791870.17,3298517.06 791870.17,3298517.06 791848.52,3298518.77 791848.52,3298518.77 791827.14,3298519.93 791827.14,3298519.93 791794.40,3298520.68 791794.40,3298520.68 791760.11,3298520.22">
        <lane index="0" width="3.66" type="shoulder" disallow="all" />
        <lane index="1" width="3.66" />
        <lane index="2" width="3.66" />
        <lane index="3" width="3.66" />
        <lane index="4" width="3.66" type="shoulder" disallow="all" />
    </edge>
    <edge id="290.0" from="node_290_start" to="j_merge_start_56" numLanes="1" speed="13.89" type="town" shape="793073.44,3298177.26 792939.11,3298173.37 792939.11,3298173.37 792876.41,3298174.67 792876.41,3298174.67 792827.82,3298178.76 792827.82,3298178.76 792808.96,3298181.30 792808.96,3298181.30 792773.79,3298186.56 792773.79,3298186.56 792735.54,3298194.06 792735.54,3298194.06 792691.20,3298204.66 792691.20,3298204.66 792625.40,3298223.02">
        <lane index="0" width="3.66" />
    </edge>
    <edge id="merge_zone_56" from="j_merge_start_56" to="j_merge_end_56" numLanes="5" speed="13.89" name="Merge zone 56" type="highway_merge" shape="792548.72,3298236.56 792548.72,3298236.56 792513.74,3298251.33 792513.74,3298251.33 792481.62,3298265.99 792481.62,3298265.99 792467.86,3298272.41 792467.86,3298272.41 792453.96,3298279.33 792453.96,3298279.33 792423.24,3298295.07 792423.24,3298295.07 792397.93,3298308.59 792397.93,3298308.59 792372.25,3298322.91 792372.25,3298322.91 792356.62,3298331.94">
        <lane index="0" width="3.66" />
        <lane index="1" width="3.66" />
        <lane index="2" width="3.66" />
        <lane index="3" width="3.66" />
        <lane index="4" width="3.66" type="shoulder" disallow="all" />
    </edge>
</edges>