<?xml version="1.0" encoding="UTF-8"?>

<!-- generated on 2025-10-19 17:33:43 by Eclipse SUMO netconvert Version 1.23.1
<netconvertConfiguration xmlns:xsi="http://www.w3.org/2001/XMLSchema-instance" xsi:noNamespaceSchemaLocation="http://sumo.dlr.de/xsd/netconvertConfiguration.xsd">

    <input>
        <node-files value="/home/sdai/harry/TeraSim/jupiter/wb/jupiter_wb_tiles/tile_0173/tile_0173.nod.xml"/>
        <edge-files value="/home/sdai/harry/TeraSim/jupiter/wb/jupiter_wb_tiles/tile_0173/tile_0173.edg.xml"/>
        <connection-files value="/home/sdai/harry/TeraSim/jupiter/wb/jupiter_wb_tiles/tile_0173/tile_0173.con.xml"/>
    </input>

    <output>
        <output-file value="/home/sdai/harry/TeraSim/jupiter/wb/jupiter_wb_tiles/tile_0173/tile_0173.net.xml"/>
        <output.street-names value="true"/>
        <output.original-names value="true"/>
    </output>

    <processing>
        <geometry.remove value="false"/>
        <geometry.min-dist value="0.5"/>
        <edges.join value="false"/>
    </processing>

    <junctions>
        <no-internal-links value="false"/>
        <no-turnarounds value="true"/>
        <junctions.join value="true"/>
        <junctions.join-dist value="10"/>
        <junctions.corner-detail value="5"/>
        <junctions.internal-link-detail value="5"/>
        <junctions.limit-turn-speed value="5.5"/>
        <rectangular-lane-cut value="true"/>
        <check-lane-foes.all value="true"/>
    </junctions>

</netconvertConfiguration>
-->

<net version="1.20" junctionCornerDetail="5" junctionLinkDetail="5" rectangularLaneCut="true" limitTurnSpeed="5.50" checkLaneFoesAll="1" xmlns:xsi="http://www.w3.org/2001/XMLSchema-instance" xsi:noNamespaceSchemaLocation="http://sumo.dlr.de/xsd/net_file.xsd">

    <location netOffset="-790184.66,-3298173.37" convBoundary="0.00,0.00,2888.78,347.31" origBoundary="0.00,0.00,793073.44,3298520.68" projParameter="!"/>

    <edge id=":j_merge_end_56_0" function="internal">
        <lane id=":j_merge_end_56_0_0" index="0" disallow="all" speed="13.89" length="40.44" width="3.66" shape="2180.20,172.83 2169.25,176.50 2160.59,175.69 2151.95,174.92 2141.08,178.71"/>
    </edge>
    <edge id=":j_merge_start_56_0" function="internal">
        <lane id=":j_merge_start_56_0_0" index="0" speed="13.89" length="75.73" width="3.66" shape="2441.23,51.41 2431.38,54.82 2412.68,61.74 2390.56,70.24 2370.47,78.36"/>
    </edge>
    <edge id=":junction_83_0" function="internal">
        <lane id=":junction_83_0_0" index="0" speed="13.89" length="99.70" width="3.66" shape="1032.66,298.73 933.39,289.48"/>
    </edge>
    <edge id=":junction_83_1" function="internal">
        <lane id=":junction_83_1_0" index="0" speed="13.89" length="100.68" width="3.66" shape="1032.66,298.73 932.75,284.84"/>
        <lane id=":junction_83_1_1" index="1" speed="13.89" length="100.68" width="3.66" shape="1033.10,295.09 933.31,281.22"/>
        <lane id=":junction_83_1_2" index="2" speed="13.89" length="100.68" width="3.66" shape="1033.53,291.46 933.88,277.60"/>
        <lane id=":junction_83_1_3" index="3" disallow="all" speed="13.89" length="100.68" width="3.66" shape="1033.97,287.83 934.45,273.99"/>
    </edge>
    <edge id=":node_293_start_0" function="internal">
        <lane id=":node_293_start_0_0" index="0" speed="13.89" length="0.49" width="3.66" shape="1575.40,359.66 1574.82,359.64"/>
        <lane id=":node_293_start_0_1" index="1" speed="13.89" length="0.49" width="3.66" shape="1575.45,356.00 1574.96,355.99"/>
        <lane id=":node_293_start_0_2" index="2" speed="13.89" length="0.49" width="3.66" shape="1575.50,352.34 1575.11,352.33"/>
    </edge>
    <edge id=":node_295_end_0" function="internal">
        <lane id=":node_295_end_0_0" index="0" speed="13.89" length="2.99" width="3.66" shape="877.33,276.15 874.34,275.66"/>
        <lane id=":node_295_end_0_1" index="1" speed="13.89" length="2.99" width="3.66" shape="877.90,272.53 874.94,272.05"/>
        <lane id=":node_295_end_0_2" index="2" speed="13.89" length="2.99" width="3.66" shape="878.47,268.92 875.55,268.44"/>
    </edge>

    <edge id="290.0" from="node_290_start" to="j_merge_start_56" priority="-1" type="town" shape="2888.78,3.89 2754.45,0.00 2691.75,1.30 2643.16,5.39 2624.30,7.93 2589.13,13.19 2550.88,20.69 2506.54,31.29 2440.74,49.65">
        <lane id="290.0_0" index="0" speed="13.89" length="452.79" width="3.66" shape="2888.73,5.72 2754.44,1.83 2691.85,3.13 2643.36,7.21 2624.56,9.74 2589.44,14.99 2551.27,22.48 2507.00,33.06 2441.23,51.41"/>
    </edge>
    <edge id="293.0" from="node_293_start" to="junction_83" priority="-1" type="town" shape="1575.45,346.85 1548.73,345.79 1525.30,343.97 1508.54,342.39 1187.94,304.52 1034.19,286.01">
        <lane id="293.0_0" index="0" disallow="all" speed="13.89" length="545.37" width="3.66" shape="1574.67,363.30 1547.77,362.23 1523.89,360.38 1506.80,358.77 1185.99,320.87 1032.22,302.36" type="shoulder"/>
        <lane id="293.0_1" index="1" speed="13.89" length="545.37" width="3.66" shape="1574.82,359.64 1547.98,358.58 1524.20,356.73 1507.19,355.13 1186.42,317.24 1032.66,298.73"/>
        <lane id="293.0_2" index="2" speed="13.89" length="545.37" width="3.66" shape="1574.96,355.99 1548.19,354.93 1524.52,353.09 1507.57,351.49 1186.86,313.61 1033.10,295.09"/>
        <lane id="293.0_3" index="3" speed="13.89" length="545.37" width="3.66" shape="1575.11,352.33 1548.41,351.27 1524.83,349.44 1507.96,347.85 1187.29,309.97 1033.53,291.46"/>
        <lane id="293.0_4" index="4" disallow="all" speed="13.89" length="545.37" width="3.66" shape="1575.25,348.67 1548.62,347.62 1525.14,345.79 1508.35,344.21 1187.72,306.34 1033.97,287.83" type="shoulder"/>
    </edge>
    <edge id="295.0" from="junction_83" to="node_295_end" priority="-1" type="town" shape="935.81,272.35 877.89,263.27">
        <lane id="295.0_0" index="0" speed="13.89" length="56.09" width="3.66" shape="932.75,284.84 877.33,276.15"/>
        <lane id="295.0_1" index="1" speed="13.89" length="56.09" width="3.66" shape="933.31,281.22 877.90,272.53"/>
        <lane id="295.0_2" index="2" speed="13.89" length="56.09" width="3.66" shape="933.88,277.60 878.47,268.92"/>
        <lane id="295.0_3" index="3" disallow="all" speed="13.89" length="56.09" width="3.66" shape="934.45,273.99 879.03,265.30" type="shoulder"/>
    </edge>
    <edge id="296.0" from="node_295_end" to="node_296_end" priority="-1" type="town" shape="877.89,263.27 841.08,257.06 764.21,243.00 702.61,230.69 658.53,221.38 622.73,213.33 577.59,202.82 537.51,193.06 494.73,182.21 417.66,161.39 339.36,138.62 0.00,36.32">
        <lane id="296.0_0" index="0" disallow="all" speed="13.89" length="907.30" width="3.66" shape="873.73,279.27 838.23,273.28 761.11,259.18 699.29,246.82 655.02,237.47 619.06,229.39 573.77,218.84 533.54,209.04 490.56,198.14 413.21,177.25 334.68,154.41 -4.75,52.09" type="shoulder"/>
        <lane id="296.0_1" index="1" speed="13.89" length="907.30" width="3.66" shape="874.34,275.66 838.86,269.68 761.80,255.58 700.03,243.24 655.80,233.90 619.87,225.82 574.62,215.28 534.42,205.49 491.49,194.60 414.20,173.72 335.72,150.90 -3.70,48.58"/>
        <lane id="296.0_2" index="2" speed="13.89" length="907.30" width="3.66" shape="874.94,272.05 839.50,266.07 762.49,251.99 700.77,239.65 656.58,230.32 620.69,222.25 575.47,211.72 535.30,201.94 492.41,191.06 415.19,170.20 336.76,147.39 -2.64,45.08"/>
        <lane id="296.0_3" index="3" speed="13.89" length="907.30" width="3.66" shape="875.55,268.44 840.13,262.47 763.18,248.39 701.51,236.07 657.36,226.74 621.51,218.68 576.32,208.16 536.19,198.39 493.34,187.52 416.18,166.68 337.80,143.88 -1.58,41.58"/>
        <lane id="296.0_4" index="4" disallow="all" speed="13.89" length="907.30" width="3.66" shape="876.16,264.83 840.76,258.86 763.87,244.80 702.24,232.48 658.14,223.17 622.32,215.11 577.17,204.60 537.07,194.84 494.27,183.98 417.17,163.15 338.84,140.37 -0.53,38.07" type="shoulder"/>
    </edge>
    <edge id="299.0" from="junction_83" to="node_299_end" priority="-1" type="town" shape="933.49,287.65 910.06,286.32 844.27,281.52 800.08,277.23 766.99,273.55 718.40,266.67 675.96,259.01">
        <lane id="299.0_0" index="0" speed="13.89" length="259.55" width="3.66" shape="933.39,289.48 909.94,288.15 844.12,283.34 799.89,279.05 766.76,275.37 718.11,268.48 675.63,260.81"/>
    </edge>
    <edge id="799.0" from="j_merge_end_56" to="node_293_start" priority="-1" type="town" shape="2140.14,177.14 2065.49,221.57 2052.78,228.90 2027.08,242.93 1998.34,257.40 1969.69,270.50 1947.89,279.74 1929.25,287.21 1903.36,296.65 1888.93,301.55 1873.52,306.38 1848.27,313.88 1826.40,319.67 1807.28,324.33 1786.06,328.94 1765.61,332.85 1743.85,336.53 1722.21,339.67 1704.95,341.66 1685.51,343.69 1663.86,345.40 1642.48,346.56 1609.74,347.31 1575.45,346.85">
        <lane id="799.0_0" index="0" disallow="all" speed="13.89" length="604.32" width="3.66" shape="2148.56,191.29 2073.82,235.78 2060.84,243.26 2034.73,257.52 2005.47,272.25 1976.33,285.57 1954.17,294.97 1935.14,302.59 1908.83,312.19 1894.04,317.21 1878.33,322.13 1852.72,329.74 1830.46,335.63 1810.98,340.38 1789.36,345.08 1768.53,349.06 1746.41,352.80 1724.34,356.00 1706.75,358.03 1687.01,360.09 1664.95,361.83 1643.12,363.02 1609.82,363.78 1575.35,363.32" type="shoulder"/>
        <lane id="799.0_1" index="1" speed="13.89" length="604.32" width="3.66" shape="2146.69,188.15 2071.97,232.62 2059.05,240.07 2033.03,254.28 2003.89,268.95 1974.85,282.22 1952.77,291.58 1933.83,299.18 1907.61,308.73 1892.91,313.73 1877.26,318.63 1851.73,326.21 1829.56,332.09 1810.16,336.81 1788.62,341.49 1767.88,345.46 1745.84,349.19 1723.86,352.37 1706.35,354.39 1686.68,356.45 1664.71,358.18 1642.97,359.36 1609.80,360.12 1575.40,359.66"/>
        <lane id="799.0_2" index="2" speed="13.89" length="604.32" width="3.66" shape="2144.82,185.00 2070.12,229.46 2057.26,236.88 2031.33,251.03 2002.30,265.65 1973.38,278.87 1951.38,288.20 1932.52,295.76 1906.40,305.28 1891.77,310.25 1876.19,315.13 1850.74,322.69 1828.65,328.54 1809.34,333.25 1787.89,337.91 1767.23,341.86 1745.27,345.57 1723.39,348.74 1705.95,350.76 1686.35,352.80 1664.47,354.53 1642.83,355.70 1609.78,356.46 1575.45,356.00"/>
        <lane id="799.0_3" index="3" speed="13.89" length="604.32" width="3.66" shape="2142.95,181.86 2068.27,226.31 2055.47,233.69 2029.63,247.79 2000.72,262.35 1971.90,275.52 1949.98,284.82 1931.21,292.34 1905.18,301.83 1890.63,306.77 1875.12,311.63 1849.75,319.17 1827.75,324.99 1808.51,329.68 1787.16,334.32 1766.58,338.25 1744.70,341.95 1722.92,345.11 1705.55,347.12 1686.01,349.16 1664.23,350.88 1642.69,352.05 1609.77,352.80 1575.50,352.34"/>
        <lane id="799.0_4" index="4" disallow="all" speed="13.89" length="604.32" width="3.66" shape="2141.08,178.71 2066.42,223.15 2053.68,230.50 2027.93,244.55 1999.13,259.05 1970.43,272.17 1948.59,281.43 1929.90,288.92 1903.97,298.38 1889.50,303.29 1874.05,308.13 1848.77,315.64 1826.85,321.44 1807.69,326.11 1786.43,330.73 1765.93,334.65 1744.13,338.34 1722.45,341.48 1705.15,343.48 1685.68,345.51 1663.98,347.23 1642.55,348.39 1609.75,349.14 1575.55,348.68" type="shoulder"/>
    </edge>
    <edge id="merge_zone_56" from="j_merge_start_56" to="j_merge_end_56" name="Merge zone 56" priority="-1" type="highway_merge" shape="2364.06,63.19 2329.08,77.96 2296.96,92.62 2283.20,99.04 2269.30,105.96 2238.58,121.70 2213.27,135.22 2187.59,149.54 2171.96,158.57">
        <lane id="merge_zone_56_0" index="0" speed="13.89" length="213.52" width="3.66" shape="2370.47,78.36 2335.70,93.04 2303.86,107.57 2290.35,113.88 2276.73,120.66 2246.22,136.29 2221.16,149.68 2195.72,163.86 2180.20,172.83"/>
        <lane id="merge_zone_56_1" index="1" speed="13.89" length="213.52" width="3.66" shape="2369.04,74.99 2334.23,89.69 2302.33,104.25 2288.76,110.58 2275.08,117.39 2244.52,133.05 2219.41,146.46 2193.91,160.68 2178.37,169.66"/>
        <lane id="merge_zone_56_2" index="2" speed="13.89" length="213.52" width="3.66" shape="2367.62,71.62 2332.76,86.34 2300.79,100.93 2287.17,107.28 2273.43,114.13 2242.82,129.81 2217.65,143.25 2192.11,157.50 2176.54,166.49"/>
        <lane id="merge_zone_56_3" index="3" speed="13.89" length="213.52" width="3.66" shape="2366.20,68.25 2331.29,82.99 2299.26,97.60 2285.58,103.99 2271.78,110.86 2241.13,126.56 2215.90,140.04 2190.30,154.31 2174.71,163.32"/>
        <lane id="merge_zone_56_4" index="4" disallow="all" speed="13.89" length="213.52" width="3.66" shape="2364.77,64.88 2329.82,79.64 2297.73,94.28 2283.99,100.69 2270.13,107.59 2239.43,123.32 2214.15,136.83 2188.49,151.13 2172.88,160.15" type="shoulder"/>
    </edge>

    <junction id="j_merge_end_56" type="priority" x="2140.14" y="177.14" incLanes="merge_zone_56_0 merge_zone_56_1 merge_zone_56_2 merge_zone_56_3 merge_zone_56_4" intLanes=":j_merge_end_56_0_0" shape="2181.11,174.42 2173.79,161.74 2142.01,180.29 2147.63,189.72 2154.49,185.96 2159.80,183.61 2164.33,181.99 2168.86,180.38 2174.20,178.09">
        <request index="0" response="0" foes="0" cont="0"/>
    </junction>
    <junction id="j_merge_start_56" type="priority" x="2435.85" y="35.74" incLanes="290.0_0" intLanes=":j_merge_start_56_0_0" shape="2441.72,53.18 2440.74,49.65 2428.40,52.56 2415.65,54.86 2402.72,56.98 2389.88,59.35 2377.38,62.40 2365.48,66.56 2371.18,80.05 2382.73,75.15 2394.35,70.25 2406.06,65.48 2417.85,60.97 2429.74,56.82">
        <request index="0" response="0" foes="0" cont="0"/>
    </junction>
    <junction id="junction_83" type="priority" x="967.83" y="282.00" incLanes="293.0_0 293.0_1 293.0_2 293.0_3 293.0_4" intLanes=":junction_83_0_0 :junction_83_1_0 :junction_83_1_1 :junction_83_1_2 :junction_83_1_3" shape="1032.44,300.55 1033.75,289.64 934.16,275.80 933.28,291.30">
        <request index="0" response="00000" foes="00000" cont="0"/>
        <request index="1" response="00000" foes="00000" cont="0"/>
        <request index="2" response="00000" foes="00000" cont="0"/>
        <request index="3" response="00000" foes="00000" cont="0"/>
        <request index="4" response="00000" foes="00000" cont="0"/>
    </junction>
    <junction id="node_290_start" type="dead_end" x="2888.78" y="3.89" incLanes="" intLanes="" shape="2888.78,3.89 2888.68,7.55"/>
    <junction id="node_293_start" type="priority" x="1575.45" y="346.85" incLanes="799.0_0 799.0_1 799.0_2 799.0_3 799.0_4" intLanes=":node_293_start_0_0 :node_293_start_0_1 :node_293_start_0_2" shape="1575.38,361.49 1575.53,350.51 1575.18,350.50 1574.74,361.47">
        <request index="0" response="000" foes="000" cont="0"/>
        <request index="1" response="000" foes="000" cont="0"/>
        <request index="2" response="000" foes="000" cont="0"/>
    </junction>
    <junction id="node_295_end" type="priority" x="877.89" y="263.27" incLanes="295.0_0 295.0_1 295.0_2 295.0_3" intLanes=":node_295_end_0_0 :node_295_end_0_1 :node_295_end_0_2" shape="877.05,277.96 878.75,267.11 875.86,266.64 874.03,277.47">
        <request index="0" response="000" foes="000" cont="0"/>
        <request index="1" response="000" foes="000" cont="0"/>
        <request index="2" response="000" foes="000" cont="0"/>
    </junction>
    <junction id="node_296_end" type="dead_end" x="0.00" y="36.32" incLanes="296.0_0 296.0_1 296.0_2 296.0_3 296.0_4" intLanes="" shape="-4.22,50.34 -1.05,39.82"/>
    <junction id="node_299_end" type="dead_end" x="675.96" y="259.01" incLanes="299.0_0" intLanes="" shape="675.31,262.61 675.96,259.01"/>

    <connection from="290.0" to="merge_zone_56" fromLane="0" toLane="0" via=":j_merge_start_56_0_0" dir="s" state="M"/>
    <connection from="293.0" to="299.0" fromLane="1" toLane="0" via=":junction_83_0_0" dir="s" state="M"/>
    <connection from="293.0" to="295.0" fromLane="1" toLane="0" via=":junction_83_1_0" dir="s" state="M"/>
    <connection from="293.0" to="295.0" fromLane="2" toLane="1" via=":junction_83_1_1" dir="s" state="M"/>
    <connection from="293.0" to="295.0" fromLane="3" toLane="2" via=":junction_83_1_2" dir="s" state="M"/>
    <connection from="293.0" to="295.0" fromLane="4" toLane="3" via=":junction_83_1_3" dir="s" state="M"/>
    <connection from="295.0" to="296.0" fromLane="0" toLane="1" via=":node_295_end_0_0" dir="s" state="M"/>
    <connection from="295.0" to="296.0" fromLane="1" toLane="2" via=":node_295_end_0_1" dir="s" state="M"/>
    <connection from="295.0" to="296.0" fromLane="2" toLane="3" via=":node_295_end_0_2" dir="s" state="M"/>
    <connection from="799.0" to="293.0" fromLane="1" toLane="1" via=":node_293_start_0_0" dir="s" state="M"/>
    <connection from="799.0" to="293.0" fromLane="2" toLane="2" via=":node_293_start_0_1" dir="s" state="M"/>
    <connection from="799.0" to="293.0" fromLane="3" toLane="3" via=":node_293_start_0_2" dir="s" state="M"/>
    <connection from="merge_zone_56" to="799.0" fromLane="0" toLane="4" via=":j_merge_end_56_0_0" dir="s" state="M"/>

    <connection from=":j_merge_end_56_0" to="799.0" fromLane="0" toLane="4" dir="s" state="M"/>
    <connection from=":j_merge_start_56_0" to="merge_zone_56" fromLane="0" toLane="0" dir="s" state="M"/>
    <connection from=":junction_83_0" to="299.0" fromLane="0" toLane="0" dir="s" state="M"/>
    <connection from=":junction_83_1" to="295.0" fromLane="0" toLane="0" dir="s" state="M"/>
    <connection from=":junction_83_1" to="295.0" fromLane="1" toLane="1" dir="s" state="M"/>
    <connection from=":junction_83_1" to="295.0" fromLane="2" toLane="2" dir="s" state="M"/>
    <connection from=":junction_83_1" to="295.0" fromLane="3" toLane="3" dir="s" state="M"/>
    <connection from=":node_293_start_0" to="293.0" fromLane="0" toLane="1" dir="s" state="M"/>
    <connection from=":node_293_start_0" to="293.0" fromLane="1" toLane="2" dir="s" state="M"/>
    <connection from=":node_293_start_0" to="293.0" fromLane="2" toLane="3" dir="s" state="M"/>
    <connection from=":node_295_end_0" to="296.0" fromLane="0" toLane="1" dir="s" state="M"/>
    <connection from=":node_295_end_0" to="296.0" fromLane="1" toLane="2" dir="s" state="M"/>
    <connection from=":node_295_end_0" to="296.0" fromLane="2" toLane="3" dir="s" state="M"/>

</net>
