<?xml version='1.0' encoding='utf-8'?>
<edges>
    <edge id="174.0" from="j_merge_end_12" to="node_174_end" numLanes="3" speed="13.89" type="town" shape="732611.40,3287244.47 732605.02,3287244.30 732605.02,3287244.30 732596.26,3287244.04 732596.26,3287244.04 732586.19,3287243.76 732586.19,3287243.76 732572.14,3287243.37 732572.14,3287243.37 732558.01,3287242.97 732558.01,3287242.97 732544.02,3287242.56 732544.02,3287242.56 732530.28,3287242.16 732530.28,3287242.16 732518.40,3287241.79 732518.40,3287241.79 732507.33,3287241.44 732507.33,3287241.44 732497.35,3287241.14 732497.35,3287241.14 732484.11,3287240.74 732484.11,3287240.74 732469.19,3287240.28 732469.19,3287240.28 732458.35,3287239.98 732458.35,3287239.98 732442.25,3287239.52 732442.25,3287239.52 732424.75,3287239.03 732424.75,3287239.03 732412.93,3287238.77 732412.93,3287238.77 732399.83,3287238.41 732399.83,3287238.41 732384.69,3287238.03 732384.69,3287238.03 732369.38,3287237.61 732369.38,3287237.61 732347.99,3287237.01 732347.99,3287237.01 732327.27,3287236.41 732327.27,3287236.41 732316.76,3287236.08 732316.76,3287236.08 732304.34,3287235.75 732304.34,3287235.75 732289.51,3287235.31 732289.51,3287235.31 732275.67,3287234.91 732275.67,3287234.91 732261.93,3287234.48 732261.93,3287234.48 732252.90,3287234.23 732252.90,3287234.23 732242.75,3287233.93 732242.75,3287233.93 732232.07,3287233.62 732232.07,3287233.62 732221.63,3287233.32 732221.63,3287233.32 732210.37,3287233.00 732210.37,3287233.00 732198.97,3287232.67 732198.97,3287232.67 732184.22,3287232.24 732184.22,3287232.24 732172.89,3287231.91 732172.89,3287231.91 732157.74,3287231.47 732157.74,3287231.47 732147.33,3287231.19 732147.33,3287231.19 732136.46,3287230.87 732136.46,3287230.87 732123.23,3287230.51 732123.23,3287230.51 732112.68,3287230.22 732112.68,3287230.22 732101.77,3287229.91 732101.77,3287229.91 732089.90,3287229.59 732089.90,3287229.59 732080.79,3287229.33 732080.79,3287229.33 732067.02,3287228.93 732067.02,3287228.93 732054.57,3287228.57 732054.57,3287228.57 732039.56,3287228.17 732039.56,3287228.17 732024.06,3287227.74 732024.06,3287227.74 732011.78,3287227.38 732011.78,3287227.38 732001.28,3287227.11 732001.28,3287227.11 731985.37,3287226.65 731985.37,3287226.65 731971.96,3287226.28 731971.96,3287226.28 731961.84,3287225.98 731961.84,3287225.98 731951.24,3287225.69 731951.24,3287225.69 731941.13,3287225.41 731941.13,3287225.41 731926.75,3287225.02 731926.75,3287225.02 731916.31,3287224.76 731916.31,3287224.76 731904.06,3287224.46 731904.06,3287224.46 731891.70,3287224.12 731891.70,3287224.12 731876.07,3287223.68 731876.07,3287223.68 731857.16,3287223.16 731857.16,3287223.16 731840.31,3287222.68 731840.31,3287222.68 731823.82,3287222.18 731823.82,3287222.18 731805.30,3287221.62 731805.30,3287221.62 731783.78,3287221.01 731783.78,3287221.01 731764.13,3287220.48 731764.13,3287220.48 731743.81,3287219.91 731743.81,3287219.91 731721.64,3287219.29 731721.64,3287219.29 731706.15,3287218.86 731706.15,3287218.86 731694.67,3287218.55 731694.67,3287218.55 731683.24,3287218.25 731683.24,3287218.25 731666.67,3287217.76 731666.67,3287217.76 731650.41,3287217.35 731650.41,3287217.35 731632.76,3287216.87 731632.76,3287216.87 731621.85,3287216.58 731621.85,3287216.58 731614.50,3287216.38">
        <lane index="0" width="3.66" type="shoulder" disallow="all" />
        <lane index="1" width="3.66" />
        <lane index="2" width="3.66" />
    </edge>
    <edge id="176.0" from="node_174_end" to="node_176_end" numLanes="2" speed="13.89" type="town" shape="731614.50,3287216.38 731607.26,3287216.19 731607.26,3287216.19 731590.62,3287215.72 731590.62,3287215.72 731574.18,3287215.26 731574.18,3287215.26 731562.56,3287214.94 731562.56,3287214.94 731552.59,3287214.64">
        <lane index="0" width="3.66" />
        <lane index="1" width="3.66" />
    </edge>
    <edge id="178.0" from="node_176_end" to="junction_75" numLanes="3" speed="13.89" type="town" shape="731552.59,3287214.64 731536.65,3287214.16">
        <lane index="0" width="3.66" />
        <lane index="1" width="3.66" />
        <lane index="2" width="3.66" />
    </edge>
    <edge id="182.0" from="junction_75" to="node_182_end" numLanes="3" speed="13.89" type="town" shape="731502.73,3287213.16 731488.01,3287212.71 731488.01,3287212.71 731469.37,3287212.16 731469.37,3287212.16 731446.16,3287211.51 731446.16,3287211.51 731425.70,3287210.94 731425.70,3287210.94 731406.33,3287210.40 731406.33,3287210.40 731384.19,3287209.84 731384.19,3287209.84 731354.79,3287209.08 731354.79,3287209.08 731330.50,3287208.42 731330.50,3287208.42 731308.67,3287207.83 731308.67,3287207.83 731289.40,3287207.31 731289.40,3287207.31 731256.74,3287206.33 731256.74,3287206.33 731226.78,3287205.49 731226.78,3287205.49 731196.11,3287204.62 731196.11,3287204.62 731160.44,3287203.53 731160.44,3287203.53 731132.54,3287202.80 731132.54,3287202.80 731105.03,3287201.99 731105.03,3287201.99 731079.32,3287201.24 731079.32,3287201.24 731055.49,3287200.59 731055.49,3287200.59 731033.87,3287199.99 731033.87,3287199.99 731012.69,3287199.39 731012.69,3287199.39 730993.35,3287198.87 730993.35,3287198.87 730975.85,3287198.39 730975.85,3287198.39 730970.87,3287198.24">
        <lane index="0" width="3.66" type="shoulder" disallow="all" />
        <lane index="1" width="3.66" />
        <lane index="2" width="3.66" />
    </edge>
    <edge id="183.0" from="j_merge_end_13" to="junction_76" numLanes="3" speed="13.89" type="town" shape="730692.90,3287190.12 730656.92,3287189.18 730656.92,3287189.18 730627.43,3287188.41 730627.43,3287188.41 730602.02,3287187.73 730602.02,3287187.73 730577.88,3287187.04 730577.88,3287187.04 730553.37,3287186.32 730553.37,3287186.32 730535.24,3287185.78 730535.24,3287185.78 730513.14,3287185.07 730513.14,3287185.07 730491.03,3287184.44 730491.03,3287184.44 730472.43,3287183.86 730472.43,3287183.86 730452.06,3287183.26 730452.06,3287183.26 730436.53,3287182.65 730436.53,3287182.65 730393.40,3287181.31 730393.40,3287181.31 730354.50,3287179.88 730354.50,3287179.88 730308.06,3287177.67 730308.06,3287177.67 730264.10,3287175.06 730264.10,3287175.06 730213.93,3287171.29 730213.93,3287171.29 730126.50,3287164.05 730126.50,3287164.05 730047.81,3287156.91 730047.81,3287156.91 729974.40,3287150.09 729974.40,3287150.09 729843.27,3287138.34 729843.27,3287138.34 729725.86,3287127.58 729725.86,3287127.58 729646.43,3287120.45 729646.43,3287120.45 729542.34,3287110.73 729542.34,3287110.73 729443.98,3287101.64 729443.98,3287101.64 729394.00,3287097.13 729394.00,3287097.13 729320.00,3287090.46 729320.00,3287090.46 729254.59,3287084.50 729254.59,3287084.50 729170.56,3287076.91 729170.56,3287076.91 729053.55,3287066.27 729053.55,3287066.27 728956.54,3287057.48 728956.54,3287057.48 728836.80,3287046.81 728836.80,3287046.81 728725.57,3287036.71 728725.57,3287036.71 728625.10,3287027.52 728625.10,3287027.52 728515.72,3287017.63 728515.72,3287017.63 728399.91,3287007.10 728399.91,3287007.10 728272.83,3286995.41 728272.83,3286995.41 728217.62,3286990.34 728217.62,3286990.34 728138.61,3286983.09 728138.61,3286983.09 728075.52,3286977.29">
        <lane index="0" width="3.66" type="shoulder" disallow="all" />
        <lane index="1" width="3.66" />
        <lane index="2" width="3.66" />
    </edge>
    <edge id="186.0" from="node_186_start" to="node_186_end" numLanes="1" speed="13.89" type="town" shape="731004.12,3287210.97 731003.73,3287211.19 731003.73,3287211.19 730992.24,3287209.97 730992.24,3287209.97 730983.46,3287209.21 730983.46,3287209.21 730970.89,3287208.35">
        <lane index="0" width="3.66" />
    </edge>
    <edge id="188.0" from="node_188_start" to="node_186_start" numLanes="1" speed="13.89" type="town" shape="731078.55,3287221.66 731067.18,3287219.77 731067.18,3287219.77 731048.79,3287216.82 731048.79,3287216.82 731032.43,3287214.38 731032.43,3287214.38 731018.20,3287212.54 731018.20,3287212.54 731005.69,3287211.12 731005.69,3287211.12 731004.12,3287210.97">
        <lane index="0" width="3.66" />
    </edge>
    <edge id="189.0" from="node_186_end" to="j_merge_start_13" numLanes="1" speed="13.89" type="town" shape="730970.89,3287208.35 730956.70,3287207.67 730956.70,3287207.67 730937.30,3287206.67 730937.30,3287206.67 730915.64,3287205.58 730915.64,3287205.58 730897.60,3287204.61 730897.60,3287204.61 730882.25,3287203.77 730882.25,3287203.77 730867.13,3287202.89 730867.13,3287202.89 730856.96,3287202.34 730856.96,3287202.34 730846.17,3287201.77">
        <lane index="0" width="3.66" />
    </edge>
    <edge id="191.0" from="node_182_end" to="j_merge_start_13" numLanes="2" speed="13.89" type="town" shape="730970.87,3287198.24 730955.22,3287197.77 730955.22,3287197.77 730928.95,3287197.04 730928.95,3287197.04 730904.67,3287196.34 730904.67,3287196.34 730882.45,3287195.68 730882.45,3287195.68 730856.40,3287194.96 730856.40,3287194.96 730846.15,3287194.68">
        <lane index="0" width="3.66" />
        <lane index="1" width="3.66" />
    </edge>
    <edge id="197.0" from="junction_75" to="node_197_end" numLanes="1" speed="13.89" type="town" shape="731503.15,3287223.27 731497.25,3287223.65 731497.25,3287223.65 731485.02,3287224.53 731485.02,3287224.53 731474.86,3287225.27 731474.86,3287225.27 731464.02,3287226.06">
        <lane index="0" width="3.66" />
    </edge>
    <edge id="200.0" from="node_200_start" to="junction_15" numLanes="1" speed="13.89" type="town" shape="727246.14,3286911.87 727220.79,3286906.55">
        <lane index="0" width="3.66" />
    </edge>
    <edge id="201.0" from="junction_15" to="junction_78" numLanes="3" speed="13.89" type="town" shape="727078.87,3286886.66 726974.63,3286877.30 726974.63,3286877.30 726887.10,3286869.41 726887.10,3286869.41 726818.79,3286863.31 726818.79,3286863.31 726754.63,3286857.56 726754.63,3286857.56 726706.94,3286853.28 726706.94,3286853.28 726657.69,3286848.78 726657.69,3286848.78 726604.76,3286843.94 726604.76,3286843.94 726545.35,3286838.47 726545.35,3286838.47 726495.54,3286834.03 726495.54,3286834.03 726437.55,3286828.88 726437.55,3286828.88 726399.77,3286825.49 726399.77,3286825.49 726351.29,3286821.09 726351.29,3286821.09 726287.23,3286815.36 726287.23,3286815.36 726185.25,3286806.11 726185.25,3286806.11 726121.10,3286800.26 726121.10,3286800.26 726055.04,3286794.22 726055.04,3286794.22 725992.87,3286788.53 725992.87,3286788.53 725935.22,3286783.29 725935.22,3286783.29 725819.87,3286772.85 725819.87,3286772.85 725753.25,3286766.81 725753.25,3286766.81 725704.34,3286762.39 725704.34,3286762.39 725647.01,3286757.16 725647.01,3286757.16 725598.99,3286752.71 725598.99,3286752.71 725559.09,3286749.08 725559.09,3286749.08 725488.83,3286742.70 725488.83,3286742.70 725431.17,3286737.49 725431.17,3286737.49 725374.41,3286732.41 725374.41,3286732.41 725308.94,3286726.46 725308.94,3286726.46 725276.48,3286723.53 725276.48,3286723.53 725247.50,3286720.85 725247.50,3286720.85 725189.13,3286715.52 725189.13,3286715.52 725140.87,3286711.10 725140.87,3286711.10 725065.76,3286704.32 725065.76,3286704.32 724968.01,3286695.40 724968.01,3286695.40 724964.06,3286695.04 724964.06,3286695.04 724949.83,3286693.76 724949.83,3286693.76 724938.46,3286692.73 724938.46,3286692.73 724926.05,3286691.59 724926.05,3286691.59 724905.24,3286689.68 724905.24,3286689.68 724888.13,3286688.12 724888.13,3286688.12 724853.76,3286684.96 724853.76,3286684.96 724825.00,3286682.33 724825.00,3286682.33 724791.78,3286679.28 724791.78,3286679.28 724766.49,3286676.96 724766.49,3286676.96 724736.46,3286674.25 724736.46,3286674.25 724717.74,3286672.55 724717.74,3286672.55 724690.74,3286670.13 724690.74,3286670.13 724652.30,3286666.63 724652.30,3286666.63 724614.15,3286663.16 724614.15,3286663.16 724578.67,3286659.92 724578.67,3286659.92 724531.30,3286655.63 724531.30,3286655.63 724485.00,3286651.40 724485.00,3286651.40 724475.16,3286650.51 724475.16,3286650.51 724464.33,3286649.52 724464.33,3286649.52 724454.19,3286648.61 724454.19,3286648.61 724440.97,3286647.39 724440.97,3286647.39 724424.92,3286645.91 724424.92,3286645.91 724417.61,3286645.22 724417.61,3286645.22 724404.12,3286643.99 724404.12,3286643.99 724392.20,3286642.90 724392.20,3286642.90 724380.84,3286641.88 724380.84,3286641.88 724365.60,3286640.53 724365.60,3286640.53 724346.38,3286638.80 724346.38,3286638.80 724327.41,3286637.13 724327.41,3286637.13 724311.48,3286635.73 724311.48,3286635.73 724292.71,3286634.08 724292.71,3286634.08 724269.50,3286631.97 724269.50,3286631.97 724242.17,3286629.50 724242.17,3286629.50 724215.53,3286627.08 724215.53,3286627.08 724192.25,3286624.95 724192.25,3286624.95 724177.49,3286623.57 724177.49,3286623.57 724168.46,3286622.74 724168.46,3286622.74 724161.04,3286622.04 724161.04,3286622.04 724148.09,3286620.82 724148.09,3286620.82 724131.70,3286619.28 724131.70,3286619.28 724119.46,3286618.16 724119.46,3286618.16 724103.98,3286616.76 724103.98,3286616.76 724092.29,3286615.69 724092.29,3286615.69 724076.89,3286614.27 724076.89,3286614.27 724062.10,3286612.89 724062.10,3286612.89 724048.57,3286611.66 724048.57,3286611.66 724032.53,3286610.22 724032.53,3286610.22 724018.55,3286608.95 724018.55,3286608.95 724006.82,3286607.90 724006.82,3286607.90 723998.61,3286607.15 723998.61,3286607.15 723989.07,3286606.27 723989.07,3286606.27 723975.98,3286605.10 723975.98,3286605.10 723961.94,3286603.84 723961.94,3286603.84 723943.66,3286602.17 723943.66,3286602.17 723924.19,3286600.42 723924.19,3286600.42 723910.34,3286599.15 723910.34,3286599.15 723897.82,3286598.05 723897.82,3286598.05 723876.57,3286596.14 723876.57,3286596.14 723863.09,3286594.87 723863.09,3286594.87 723844.02,3286593.17 723844.02,3286593.17 723828.36,3286591.71 723828.36,3286591.71 723809.91,3286590.07 723809.91,3286590.07 723791.95,3286588.43 723791.95,3286588.43 723769.55,3286586.41 723769.55,3286586.41 723736.96,3286583.47 723736.96,3286583.47 723716.48,3286581.61 723716.48,3286581.61 723693.92,3286579.55 723693.92,3286579.55 723675.65,3286577.90 723675.65,3286577.90 723655.35,3286576.06 723655.35,3286576.06 723634.96,3286574.19 723634.96,3286574.19 723609.34,3286571.86 723609.34,3286571.86 723588.30,3286569.94 723588.30,3286569.94 723577.20,3286568.92 723577.20,3286568.92 723564.41,3286567.73 723564.41,3286567.73 723550.91,3286566.48 723550.91,3286566.48 723539.65,3286565.43 723539.65,3286565.43 723524.84,3286564.12 723524.84,3286564.12 723507.76,3286562.58 723507.76,3286562.58 723490.47,3286561.04 723490.47,3286561.04 723468.68,3286559.04 723468.68,3286559.04 723445.60,3286556.90 723445.60,3286556.90 723421.17,3286554.62 723421.17,3286554.62 723406.23,3286553.26 723406.23,3286553.26 723379.35,3286550.77 723379.35,3286550.77 723363.51,3286549.29 723363.51,3286549.29 723345.73,3286547.70 723345.73,3286547.70 723322.80,3286545.63 723322.80,3286545.63 723298.39,3286543.41 723298.39,3286543.41 723270.46,3286540.90 723270.46,3286540.90 723230.88,3286537.33 723230.88,3286537.33 723191.15,3286533.73 723191.15,3286533.73 723138.16,3286528.93 723138.16,3286528.93 723104.28,3286525.85 723104.28,3286525.85 723075.84,3286523.21 723075.84,3286523.21 723046.73,3286520.54 723046.73,3286520.54 723010.62,3286517.20 723010.62,3286517.20 722974.20,3286513.94 722974.20,3286513.94 722949.24,3286511.65 722949.24,3286511.65 722922.38,3286509.28 722922.38,3286509.28 722898.92,3286507.14 722898.92,3286507.14 722886.69,3286506.05 722886.69,3286506.05 722872.56,3286504.75 722872.56,3286504.75 722847.57,3286502.52 722847.57,3286502.52 722819.55,3286500.01 722819.55,3286500.01 722788.13,3286497.15 722788.13,3286497.15 722767.34,3286495.25 722767.34,3286495.25 722756.80,3286494.30 722756.80,3286494.30 722740.91,3286492.85 722740.91,3286492.85 722723.93,3286491.30 722723.93,3286491.30 722700.70,3286489.18 722700.70,3286489.18 722682.47,3286487.48 722682.47,3286487.48 722657.38,3286485.23 722657.38,3286485.23 722640.16,3286483.64 722640.16,3286483.64 722605.78,3286480.51 722605.78,3286480.51 722580.52,3286478.22 722580.52,3286478.22 722562.25,3286476.67 722562.25,3286476.67 722542.38,3286475.07 722542.38,3286475.07 722527.92,3286474.03 722527.92,3286474.03 722506.56,3286472.77 722506.56,3286472.77 722487.12,3286471.70 722487.12,3286471.70 722475.33,3286471.09 722475.33,3286471.09 722455.91,3286470.34 722455.91,3286470.34 722435.73,3286469.84 722435.73,3286469.84 722422.56,3286469.62 722422.56,3286469.62 722407.33,3286469.57 722407.33,3286469.57 722393.73,3286469.59 722393.73,3286469.59 722378.15,3286469.73 722378.15,3286469.73 722366.35,3286470.02 722366.35,3286470.02 722351.62,3286470.42 722351.62,3286470.42 722333.46,3286471.07 722333.46,3286471.07 722316.71,3286471.80 722316.71,3286471.80 722295.85,3286472.97 722295.85,3286472.97 722280.99,3286473.92 722280.99,3286473.92 722271.40,3286474.61 722271.40,3286474.61 722259.23,3286475.57 722259.23,3286475.57 722241.27,3286477.06 722241.27,3286477.06 722224.76,3286478.63 722224.76,3286478.63 722204.71,3286480.87 722204.71,3286480.87 722181.95,3286483.68 722181.95,3286483.68 722163.06,3286486.07 722163.06,3286486.07 722143.76,3286488.67 722143.76,3286488.67 722130.97,3286490.44 722130.97,3286490.44 722114.42,3286492.70 722114.42,3286492.70 722090.52,3286496.00 722090.52,3286496.00 722068.88,3286498.98 722068.88,3286498.98 722043.86,3286502.42 722043.86,3286502.42 722021.61,3286505.49 722021.61,3286505.49 722000.21,3286508.40 722000.21,3286508.40 721971.96,3286512.30 721971.96,3286512.30 721945.72,3286515.89 721945.72,3286515.89 721920.04,3286519.40 721920.04,3286519.40 721892.40,3286523.21 721892.40,3286523.21 721872.25,3286525.97 721872.25,3286525.97 721860.62,3286527.57 721860.62,3286527.57 721849.92,3286529.07 721849.92,3286529.07 721831.67,3286531.62 721831.67,3286531.62 721820.04,3286533.19 721820.04,3286533.19 721804.49,3286535.31 721804.49,3286535.31 721782.79,3286538.28 721782.79,3286538.28 721755.91,3286541.96 721755.91,3286541.96 721730.49,3286545.42 721730.49,3286545.42 721706.93,3286548.63 721706.93,3286548.63 721684.29,3286551.68 721684.29,3286551.68 721661.38,3286554.81 721661.38,3286554.81 721633.02,3286558.70 721633.02,3286558.70 721605.64,3286562.42 721605.64,3286562.42 721582.86,3286565.51 721582.86,3286565.51 721559.31,3286568.70 721559.31,3286568.70 721528.33,3286572.91 721528.33,3286572.91 721511.64,3286575.15 721511.64,3286575.15 721487.52,3286578.42 721487.52,3286578.42 721461.93,3286581.93 721461.93,3286581.93 721438.25,3286585.21 721438.25,3286585.21 721410.72,3286588.92 721410.72,3286588.92 721385.50,3286592.37 721385.50,3286592.37 721363.93,3286595.34 721363.93,3286595.34 721344.03,3286598.10 721344.03,3286598.10 721323.58,3286600.95 721323.58,3286600.95 721303.84,3286603.62 721303.84,3286603.62 721283.18,3286606.43 721283.18,3286606.43 721261.07,3286609.42 721261.07,3286609.42 721242.35,3286611.92 721242.35,3286611.92 721216.25,3286615.46 721216.25,3286615.46 721192.22,3286618.70 721192.22,3286618.70 721177.86,3286620.61 721177.86,3286620.61 721157.75,3286623.32 721157.75,3286623.32 721144.28,3286625.18 721144.28,3286625.18 721123.42,3286627.99 721123.42,3286627.99 721107.22,3286630.20 721107.22,3286630.20 721099.30,3286631.27 721099.30,3286631.27 721086.47,3286633.03 721086.47,3286633.03 721069.07,3286635.39 721069.07,3286635.39 721050.42,3286637.93 721050.42,3286637.93 721023.58,3286641.61 721023.58,3286641.61 721000.95,3286644.73 721000.95,3286644.73 720976.29,3286648.08 720976.29,3286648.08 720958.92,3286650.43 720958.92,3286650.43 720941.76,3286652.72 720941.76,3286652.72 720919.04,3286655.76 720919.04,3286655.76 720891.01,3286659.50 720891.01,3286659.50 720863.91,3286663.12 720863.91,3286663.12 720831.69,3286667.46 720831.69,3286667.46 720813.30,3286669.96 720813.30,3286669.96 720796.47,3286672.24 720796.47,3286672.24 720784.04,3286673.93 720784.04,3286673.93 720762.22,3286676.91 720762.22,3286676.91 720747.22,3286678.97 720747.22,3286678.97 720726.46,3286681.75 720726.46,3286681.75 720700.89,3286685.23 720700.89,3286685.23 720672.90,3286689.07 720672.90,3286689.07 720634.91,3286694.25 720634.91,3286694.25 720602.43,3286698.69 720602.43,3286698.69 720577.53,3286702.13 720577.53,3286702.13 720556.78,3286704.99 720556.78,3286704.99 720532.26,3286708.31 720532.26,3286708.31 720512.23,3286711.02 720512.23,3286711.02 720489.46,3286714.12 720489.46,3286714.12 720471.80,3286716.50 720471.80,3286716.50 720448.95,3286719.58 720448.95,3286719.58 720425.50,3286722.74 720425.50,3286722.74 720402.70,3286725.86 720402.70,3286725.86 720381.00,3286728.80 720381.00,3286728.80 720361.74,3286731.43 720361.74,3286731.43 720340.59,3286734.31 720340.59,3286734.31 720315.87,3286737.66 720315.87,3286737.66 720289.61,3286741.19 720289.61,3286741.19 720268.89,3286744.02 720268.89,3286744.02 720250.88,3286746.48 720250.88,3286746.48 720236.42,3286748.46 720236.42,3286748.46 720223.73,3286750.20 720223.73,3286750.20 720208.42,3286752.31 720208.42,3286752.31 720197.48,3286753.82 720197.48,3286753.82 720182.90,3286755.85 720182.90,3286755.85 720166.98,3286758.04 720166.98,3286758.04 720151.43,3286760.16 720151.43,3286760.16 720137.51,3286762.05 720137.51,3286762.05 720126.17,3286763.59 720126.17,3286763.59 720115.24,3286765.08 720115.24,3286765.08 720103.66,3286766.65 720103.66,3286766.65 720089.97,3286768.52 720089.97,3286768.52 720074.84,3286770.57 720074.84,3286770.57 720058.46,3286772.81 720058.46,3286772.81 720041.72,3286775.09 720041.72,3286775.09 720024.46,3286777.41 720024.46,3286777.41 720008.75,3286779.52 720008.75,3286779.52 719995.56,3286781.29 719995.56,3286781.29 719979.47,3286783.46 719979.47,3286783.46 719959.19,3286786.22 719959.19,3286786.22 719943.47,3286788.35 719943.47,3286788.35 719927.61,3286790.50 719927.61,3286790.50 719911.08,3286792.78 719911.08,3286792.78 719897.27,3286794.67 719897.27,3286794.67 719880.62,3286796.96 719880.62,3286796.96 719871.08,3286798.24 719871.08,3286798.24 719859.47,3286799.82 719859.47,3286799.82 719850.19,3286801.09 719850.19,3286801.09 719838.71,3286802.65 719838.71,3286802.65 719823.16,3286804.73 719823.16,3286804.73 719807.07,3286806.92 719807.07,3286806.92 719787.09,3286809.62 719787.09,3286809.62 719770.01,3286811.95 719770.01,3286811.95 719757.56,3286813.64 719757.56,3286813.64 719747.08,3286815.06 719747.08,3286815.06 719735.84,3286816.59 719735.84,3286816.59 719719.83,3286818.76 719719.83,3286818.76 719704.25,3286820.90 719704.25,3286820.90 719687.25,3286823.20 719687.25,3286823.20 719679.18,3286824.31 719679.18,3286824.31 719665.53,3286826.15 719665.53,3286826.15 719652.34,3286827.93 719652.34,3286827.93 719636.87,3286830.02 719636.87,3286830.02 719622.69,3286831.92 719622.69,3286831.92 719611.84,3286833.35 719611.84,3286833.35 719598.11,3286835.14 719598.11,3286835.14 719585.57,3286836.77 719585.57,3286836.77 719574.29,3286838.23 719574.29,3286838.23 719562.97,3286839.69 719562.97,3286839.69 719551.76,3286841.16 719551.76,3286841.16 719542.76,3286842.29 719542.76,3286842.29 719531.99,3286843.66 719531.99,3286843.66 719518.01,3286845.32 719518.01,3286845.32 719505.99,3286846.61 719505.99,3286846.61 719497.08,3286847.56 719497.08,3286847.56 719486.84,3286848.59 719486.84,3286848.59 719475.48,3286849.63 719475.48,3286849.63 719464.24,3286850.51 719464.24,3286850.51 719451.22,3286851.39 719451.22,3286851.39 719439.77,3286852.08 719439.77,3286852.08 719427.70,3286852.77 719427.70,3286852.77 719414.80,3286853.52 719414.80,3286853.52 719404.49,3286854.10 719404.49,3286854.10 719394.56,3286854.63 719394.56,3286854.63 719385.38,3286855.12 719385.38,3286855.12 719376.89,3286855.47 719376.89,3286855.47 719363.13,3286855.87 719363.13,3286855.87 719352.24,3286856.03 719352.24,3286856.03 719342.49,3286856.09 719342.49,3286856.09 719330.80,3286856.09 719330.80,3286856.09 719318.98,3286856.03 719318.98,3286856.03 719307.69,3286855.96 719307.69,3286855.96 719301.48,3286855.95 719301.48,3286855.95 719297.39,3286855.89 719297.39,3286855.89 719284.90,3286855.77 719284.90,3286855.77 719278.04,3286855.68 719278.04,3286855.68 719272.60,3286855.60 719272.60,3286855.60 719267.11,3286855.47 719267.11,3286855.47 719257.79,3286855.30 719257.79,3286855.30 719247.65,3286855.05 719247.65,3286855.05 719237.40,3286854.80 719237.40,3286854.80 719225.72,3286854.50 719225.72,3286854.50 719216.25,3286854.24 719216.25,3286854.24 719210.20,3286854.10 719210.20,3286854.10 719205.07,3286853.96 719205.07,3286853.96 719198.34,3286853.80 719198.34,3286853.80 719190.11,3286853.55 719190.11,3286853.55 719181.62,3286853.33 719181.62,3286853.33 719174.20,3286853.15 719174.20,3286853.15 719168.26,3286852.99 719168.26,3286852.99 719159.84,3286852.75 719159.84,3286852.75 719149.38,3286852.45 719149.38,3286852.45 719138.44,3286852.16 719138.44,3286852.16 719131.25,3286851.94 719131.25,3286851.94 719125.34,3286851.80 719125.34,3286851.80 719116.56,3286851.55 719116.56,3286851.55 719106.82,3286851.28 719106.82,3286851.28 719095.01,3286850.94 719095.01,3286850.94 719082.92,3286850.60 719082.92,3286850.60 719071.58,3286850.28 719071.58,3286850.28 719060.90,3286849.98 719060.90,3286849.98 719051.79,3286849.75 719051.79,3286849.75 719042.34,3286849.45 719042.34,3286849.45 719031.91,3286849.17 719031.91,3286849.17 719020.75,3286848.85 719020.75,3286848.85 719009.19,3286848.50 719009.19,3286848.50 718997.40,3286848.16 718997.40,3286848.16 718981.63,3286847.70 718981.63,3286847.70 718962.11,3286847.16 718962.11,3286847.16 718943.29,3286846.61 718943.29,3286846.61 718928.58,3286846.19 718928.58,3286846.19 718915.70,3286845.85 718915.70,3286845.85 718903.99,3286845.52 718903.99,3286845.52 718894.53,3286845.26 718894.53,3286845.26 718883.57,3286844.99 718883.57,3286844.99 718876.74,3286844.78 718876.74,3286844.78 718865.90,3286844.50 718865.90,3286844.50 718854.97,3286844.24 718854.97,3286844.24 718846.99,3286844.01 718846.99,3286844.01 718838.10,3286843.75 718838.10,3286843.75 718826.47,3286843.43 718826.47,3286843.43 718810.98,3286842.98 718810.98,3286842.98 718795.35,3286842.54 718795.35,3286842.54 718777.45,3286842.05 718777.45,3286842.05 718766.84,3286841.77 718766.84,3286841.77 718758.42,3286841.52 718758.42,3286841.52 718746.84,3286841.20 718746.84,3286841.20 718736.40,3286840.93 718736.40,3286840.93 718721.94,3286840.52 718721.94,3286840.52 718705.86,3286840.09 718705.86,3286840.09 718692.60,3286839.75 718692.60,3286839.75 718675.20,3286839.25 718675.20,3286839.25 718658.15,3286838.77 718658.15,3286838.77 718640.20,3286838.28 718640.20,3286838.28 718626.54,3286837.91 718626.54,3286837.91 718617.11,3286837.61 718617.11,3286837.61 718609.15,3286837.37 718609.15,3286837.37 718600.44,3286837.12 718600.44,3286837.12 718586.67,3286836.77 718586.67,3286836.77 718572.44,3286836.37 718572.44,3286836.37 718559.77,3286836.02 718559.77,3286836.02 718549.08,3286835.74 718549.08,3286835.74 718539.79,3286835.48 718539.79,3286835.48 718529.71,3286835.21 718529.71,3286835.21 718520.59,3286834.97 718520.59,3286834.97 718510.85,3286834.71 718510.85,3286834.71 718499.60,3286834.39 718499.60,3286834.39 718485.83,3286834.00 718485.83,3286834.00 718472.43,3286833.61 718472.43,3286833.61 718458.40,3286833.22 718458.40,3286833.22 718447.54,3286832.95 718447.54,3286832.95 718435.87,3286832.62 718435.87,3286832.62 718426.93,3286832.37 718426.93,3286832.37 718415.92,3286832.07 718415.92,3286832.07 718404.32,3286831.75 718404.32,3286831.75 718390.28,3286831.37 718390.28,3286831.37 718376.21,3286831.00 718376.21,3286831.00 718363.60,3286830.64 718363.60,3286830.64 718349.05,3286830.23 718349.05,3286830.23 718331.62,3286829.74 718331.62,3286829.74 718315.08,3286829.29 718315.08,3286829.29 718298.79,3286828.81 718298.79,3286828.81 718285.84,3286828.46 718285.84,3286828.46 718275.38,3286828.16 718275.38,3286828.16 718268.53,3286827.97 718268.53,3286827.97 718260.55,3286827.75 718260.55,3286827.75 718250.76,3286827.48 718250.76,3286827.48 718239.68,3286827.17 718239.68,3286827.17 718230.42,3286826.97 718230.42,3286826.97 718218.68,3286826.63 718218.68,3286826.63 718206.43,3286826.30 718206.43,3286826.30 718193.02,3286825.94 718193.02,3286825.94 718175.64,3286825.48 718175.64,3286825.48 718162.25,3286825.10 718162.25,3286825.10 718147.42,3286824.69 718147.42,3286824.69 718135.51,3286824.37 718135.51,3286824.37 718124.17,3286824.07 718124.17,3286824.07 718109.80,3286823.70 718109.80,3286823.70 718097.92,3286823.37 718097.92,3286823.37 718078.78,3286822.82 718078.78,3286822.82 718068.93,3286822.58 718068.93,3286822.58 718058.58,3286822.28 718058.58,3286822.28 718047.27,3286821.99 718047.27,3286821.99 718031.67,3286821.54 718031.67,3286821.54 718014.35,3286821.06 718014.35,3286821.06 717996.81,3286820.54 717996.81,3286820.54 717976.10,3286819.94 717976.10,3286819.94 717956.70,3286819.39 717956.70,3286819.39 717938.21,3286818.85 717938.21,3286818.85 717918.91,3286818.31 717918.91,3286818.31 717904.43,3286817.91 717904.43,3286817.91 717893.90,3286817.61 717893.90,3286817.61 717882.97,3286817.31 717882.97,3286817.31 717870.94,3286816.98 717870.94,3286816.98 717857.53,3286816.64 717857.53,3286816.64 717846.37,3286816.32 717846.37,3286816.32 717835.85,3286816.03 717835.85,3286816.03 717825.30,3286815.75 717825.30,3286815.75 717814.42,3286815.44 717814.42,3286815.44 717803.93,3286815.14 717803.93,3286815.14 717790.63,3286814.80 717790.63,3286814.80 717781.02,3286814.49 717781.02,3286814.49 717767.92,3286814.18 717767.92,3286814.18 717756.89,3286813.89 717756.89,3286813.89 717745.04,3286813.56 717745.04,3286813.56 717732.45,3286813.22 717732.45,3286813.22 717719.06,3286812.85 717719.06,3286812.85 717707.65,3286812.56 717707.65,3286812.56 717697.94,3286812.30 717697.94,3286812.30 717688.39,3286812.03 717688.39,3286812.03 717678.39,3286811.75 717678.39,3286811.75 717666.61,3286811.44 717666.61,3286811.44 717655.36,3286811.14 717655.36,3286811.14 717644.06,3286810.83 717644.06,3286810.83 717632.18,3286810.48 717632.18,3286810.48 717623.44,3286810.26 717623.44,3286810.26 717614.89,3286810.01 717614.89,3286810.01 717604.71,3286809.74 717604.71,3286809.74 717596.57,3286809.52 717596.57,3286809.52 717585.44,3286809.19 717585.44,3286809.19 717575.04,3286808.89 717575.04,3286808.89 717560.83,3286808.49 717560.83,3286808.49 717550.96,3286808.25