<?xml version="1.0" encoding="UTF-8"?>

<!-- generated on 2025-10-19 17:33:43 by Eclipse SUMO netconvert Version 1.23.1
<netconvertConfiguration xmlns:xsi="http://www.w3.org/2001/XMLSchema-instance" xsi:noNamespaceSchemaLocation="http://sumo.dlr.de/xsd/netconvertConfiguration.xsd">

    <input>
        <node-files value="/home/sdai/harry/TeraSim/jupiter/wb/jupiter_wb_tiles/tile_0123/tile_0123.nod.xml"/>
        <edge-files value="/home/sdai/harry/TeraSim/jupiter/wb/jupiter_wb_tiles/tile_0123/tile_0123.edg.xml"/>
        <connection-files value="/home/sdai/harry/TeraSim/jupiter/wb/jupiter_wb_tiles/tile_0123/tile_0123.con.xml"/>
    </input>

    <output>
        <output-file value="/home/sdai/harry/TeraSim/jupiter/wb/jupiter_wb_tiles/tile_0123/tile_0123.net.xml"/>
        <output.street-names value="true"/>
        <output.original-names value="true"/>
    </output>

    <processing>
        <geometry.remove value="false"/>
        <geometry.min-dist value="0.5"/>
        <edges.join value="false"/>
    </processing>

    <junctions>
        <no-internal-links value="false"/>
        <no-turnarounds value="true"/>
        <junctions.join value="true"/>
        <junctions.join-dist value="10"/>
        <junctions.corner-detail value="5"/>
        <junctions.internal-link-detail value="5"/>
        <junctions.limit-turn-speed value="5.5"/>
        <rectangular-lane-cut value="true"/>
        <check-lane-foes.all value="true"/>
    </junctions>

</netconvertConfiguration>
-->

<net version="1.20" junctionCornerDetail="5" junctionLinkDetail="5" rectangularLaneCut="true" limitTurnSpeed="5.50" checkLaneFoesAll="1" xmlns:xsi="http://www.w3.org/2001/XMLSchema-instance" xsi:noNamespaceSchemaLocation="http://sumo.dlr.de/xsd/net_file.xsd">

    <location netOffset="-715575.10,-3286469.57" convBoundary="0.00,0.00,17215.70,779.79" origBoundary="0.00,0.00,732846.07,3287260.96" projParameter="!"/>

    <edge id=":j_merge_end_12_0" function="internal">
        <lane id=":j_merge_end_12_0_0" index="0" speed="13.89" length="38.20" width="3.66" shape="17074.34,781.43 17036.15,780.39"/>
        <lane id=":j_merge_end_12_0_1" index="1" speed="13.89" length="38.20" width="3.66" shape="17074.44,777.77 17036.25,776.73"/>
    </edge>
    <edge id=":j_merge_end_13_0" function="internal">
        <lane id=":j_merge_end_13_0_0" index="0" speed="13.89" length="2.64" width="3.66" shape="15117.67,729.70 15117.59,722.38"/>
        <lane id=":j_merge_end_13_0_1" index="1" speed="13.89" length="2.64" width="3.66" shape="15117.78,726.04 15117.49,726.03"/>
        <lane id=":j_merge_end_13_0_2" index="2" speed="13.89" length="2.64" width="3.66" shape="15117.90,722.38 15117.59,722.38"/>
    </edge>
    <edge id=":j_merge_start_13_0" function="internal">
        <lane id=":j_merge_start_13_0_0" index="0" speed="13.89" length="76.75" width="3.66" shape="15270.85,734.02 15194.13,732.17"/>
    </edge>
    <edge id=":j_merge_start_13_1" function="internal">
        <lane id=":j_merge_start_13_1_0" index="0" speed="13.89" length="76.68" width="3.66" shape="15270.90,730.60 15194.24,728.51"/>
        <lane id=":j_merge_start_13_1_1" index="1" speed="13.89" length="76.68" width="3.66" shape="15271.00,726.94 15194.36,724.85"/>
    </edge>
    <edge id=":junction_15_0" function="internal">
        <lane id=":junction_15_0_0" index="0" speed="13.89" length="152.59" width="3.66" shape="11650.85,439.93 11627.20,436.92 11578.84,431.18 11528.59,425.39 11499.30,422.20"/>
    </edge>
    <edge id=":junction_15_1" function="internal">
        <lane id=":junction_15_1_0" index="0" speed="13.89" length="152.78" width="3.66" shape="11651.46,435.86 11499.30,422.20"/>
        <lane id=":junction_15_1_1" index="1" speed="13.89" length="152.78" width="3.66" shape="11651.79,432.22 11499.62,418.55"/>
    </edge>
    <edge id=":junction_75_0" function="internal">
        <lane id=":junction_75_0_0" index="0" speed="13.89" length="33.18" width="3.66" shape="15961.27,753.74 15950.48,753.78 15940.97,754.34 15933.34,755.05 15928.17,755.53"/>
    </edge>
    <edge id=":junction_75_1" function="internal">
        <lane id=":junction_75_1_0" index="0" speed="13.89" length="33.94" width="3.66" shape="15961.38,750.08 15927.46,749.08"/>
        <lane id=":junction_75_1_1" index="1" speed="13.89" length="33.94" width="3.66" shape="15961.50,746.42 15927.57,745.42"/>
    </edge>
    <edge id=":junction_76_0" function="internal">
        <lane id=":junction_76_0_0" index="0" speed="13.89" length="68.39" width="3.66" shape="12499.92,513.19 12483.64,512.27 12462.02,511.58 12442.26,511.15 12431.57,511.00"/>
    </edge>
    <edge id=":junction_76_1" function="internal">
        <lane id=":junction_76_1_0" index="0" speed="13.89" length="68.45" width="3.66" shape="12499.92,513.19 12431.76,506.99"/>
        <lane id=":junction_76_1_1" index="1" speed="13.89" length="68.45" width="3.66" shape="12500.25,509.54 12432.09,503.35"/>
    </edge>
    <edge id=":node_174_end_0" function="internal">
        <lane id=":node_174_end_0_0" index="0" speed="13.89" length="7.81" width="3.66" shape="16043.30,752.41 16035.48,752.36"/>
    </edge>
    <edge id=":node_174_end_1" function="internal">
        <lane id=":node_174_end_1_0" index="0" speed="13.89" length="8.12" width="3.66" shape="16043.30,752.41 16035.18,752.19"/>
        <lane id=":node_174_end_1_1" index="1" speed="13.89" length="8.12" width="3.66" shape="16043.39,748.75 16035.28,748.53"/>
    </edge>
    <edge id=":node_176_end_0" function="internal">
        <lane id=":node_176_end_0_0" index="0" speed="13.89" length="3.21" width="3.66" shape="15979.07,750.61 15975.86,750.51"/>
        <lane id=":node_176_end_0_1" index="1" speed="13.89" length="3.21" width="3.66" shape="15979.18,746.95 15975.97,746.86"/>
    </edge>
    <edge id=":node_176_end_2" function="internal">
        <lane id=":node_176_end_2_0" index="0" speed="13.89" length="3.14" width="3.66" shape="15978.87,753.86 15975.75,754.17"/>
    </edge>
    <edge id=":node_182_end_0" function="internal">
        <lane id=":node_182_end_0_0" index="0" speed="13.89" length="3.00" width="3.66" shape="15397.10,734.20 15394.11,734.11"/>
        <lane id=":node_182_end_0_1" index="1" speed="13.89" length="3.00" width="3.66" shape="15397.21,730.54 15394.22,730.45"/>
    </edge>
    <edge id=":node_186_end_0" function="internal">
        <lane id=":node_186_end_0_0" index="0" speed="13.89" length="0.28" width="3.66" shape="15395.82,740.62 15395.54,740.60"/>
    </edge>
    <edge id=":node_186_start_0" function="internal">
        <lane id=":node_186_start_0_0" index="0" speed="13.89" length="2.02" width="3.66" shape="15429.87,743.32 15429.27,743.30 15428.86,743.35 15428.45,743.40 15427.85,743.38"/>
    </edge>
    <edge id=":node_200_start_0" function="internal">
        <lane id=":node_200_start_0_0" index="0" speed="13.89" length="0.30" width="3.66" shape="11670.82,444.12 11670.53,444.06"/>
    </edge>
    <edge id=":node_202_start_0" function="internal">
        <lane id=":node_202_start_0_0" index="0" speed="13.89" length="3.00" width="3.66" shape="11673.01,437.82 11670.02,437.55"/>
        <lane id=":node_202_start_0_1" index="1" speed="13.89" length="3.00" width="3.66" shape="11673.34,434.18 11670.35,433.91"/>
    </edge>
    <edge id=":node_203_end_0" function="internal">
        <lane id=":node_203_end_0_0" index="0" speed="13.89" length="0.30" width="3.66" shape="12404.52,510.97 12404.22,510.97"/>
    </edge>
    <edge id=":node_204_end_0" function="internal">
        <lane id=":node_204_end_0_0" index="0" speed="13.89" length="3.00" width="3.66" shape="12406.09,504.67 12403.10,504.40"/>
        <lane id=":node_204_end_0_1" index="1" speed="13.89" length="3.00" width="3.66" shape="12406.42,501.03 12403.43,500.76"/>
    </edge>

    <edge id="174.0" from="j_merge_end_12" to="node_174_end" priority="-1" type="town" shape="17036.30,774.90 17029.92,774.73 17021.16,774.47 17011.09,774.19 16997.04,773.80 16982.91,773.40 16968.92,772.99 16955.18,772.59 16943.30,772.22 16932.23,771.87 16922.25,771.57 16909.01,771.17 16894.09,770.71 16883.25,770.41 16867.15,769.95 16849.65,769.46 16837.83,769.20 16824.73,768.84 16809.59,768.46 16794.28,768.04 16772.89,767.44 16752.17,766.84 16741.66,766.51 16729.24,766.18 16714.41,765.74 16700.57,765.34 16686.83,764.91 16677.80,764.66 16667.65,764.36 16656.97,764.05 16646.53,763.75 16635.27,763.43 16623.87,763.10 16609.12,762.67 16597.79,762.34 16582.64,761.90 16572.23,761.62 16561.36,761.30 16548.13,760.94 16537.58,760.65 16526.67,760.34 16514.80,760.02 16505.69,759.76 16491.92,759.36 16479.47,759.00 16464.46,758.60 16448.96,758.17 16436.68,757.81 16426.18,757.54 16410.27,757.08 16396.86,756.71 16386.74,756.41 16376.14,756.12 16366.03,755.84 16351.65,755.45 16341.21,755.19 16328.96,754.89 16316.60,754.55 16300.97,754.11 16282.06,753.59 16265.21,753.11 16248.72,752.61 16230.20,752.05 16208.68,751.44 16189.03,750.91 16168.71,750.34 16146.54,749.72 16131.05,749.29 16119.57,748.98 16108.14,748.68 16091.57,748.19 16075.31,747.78 16057.66,747.30 16046.75,747.01 16039.40,746.81">
        <lane id="174.0_0" index="0" disallow="all" speed="13.89" length="993.25" width="3.66" shape="17036.06,784.05 17029.66,783.88 17020.90,783.62 17010.84,783.34 16996.78,782.95 16982.65,782.55 16968.65,782.14 16954.91,781.74 16943.01,781.37 16931.95,781.02 16921.97,780.72 16908.73,780.32 16893.82,779.86 16882.99,779.56 16866.89,779.10 16849.42,778.61 16837.60,778.35 16824.49,777.99 16809.35,777.61 16794.03,777.19 16772.63,776.59 16751.90,775.99 16741.40,775.66 16728.98,775.33 16714.14,774.89 16700.29,774.49 16686.56,774.06 16677.54,773.81 16667.38,773.51 16656.71,773.20 16646.27,772.90 16635.01,772.58 16623.60,772.25 16608.85,771.82 16597.52,771.49 16582.38,771.05 16571.97,770.77 16561.10,770.45 16547.88,770.09 16537.32,769.80 16526.42,769.49 16514.55,769.17 16505.43,768.91 16491.66,768.51 16479.22,768.15 16464.21,767.75 16448.70,767.32 16436.43,766.96 16425.93,766.69 16410.01,766.23 16396.60,765.86 16386.48,765.56 16375.89,765.27 16365.78,764.99 16351.41,764.60 16340.98,764.34 16328.72,764.04 16316.35,763.70 16300.72,763.26 16281.80,762.74 16264.94,762.26 16248.44,761.76 16229.93,761.20 16208.43,760.59 16188.78,760.06 16168.45,759.49 16146.29,758.87 16130.80,758.44 16119.33,758.13 16107.88,757.83 16091.32,757.34 16075.07,756.93 16057.41,756.45 16046.50,756.16 16043.20,756.07" type="shoulder"/>
        <lane id="174.0_1" index="1" speed="13.89" length="993.25" width="3.66" shape="17036.15,780.39 17029.76,780.22 17021.00,779.96 17010.94,779.68 16996.89,779.29 16982.75,778.89 16968.76,778.48 16955.02,778.08 16943.13,777.71 16932.06,777.36 16922.08,777.06 16908.84,776.66 16893.93,776.20 16883.10,775.90 16867.00,775.44 16849.51,774.95 16837.69,774.69 16824.59,774.33 16809.45,773.95 16794.13,773.53 16772.73,772.93 16752.01,772.33 16741.50,772.00 16729.09,771.67 16714.25,771.23 16700.41,770.83 16686.67,770.40 16677.64,770.15 16667.49,769.85 16656.81,769.54 16646.37,769.24 16635.11,768.92 16623.71,768.59 16608.96,768.16 16597.63,767.83 16582.49,767.39 16572.08,767.11 16561.21,766.79 16547.98,766.43 16537.43,766.14 16526.52,765.83 16514.65,765.51 16505.53,765.25 16491.76,764.85 16479.32,764.49 16464.31,764.09 16448.80,763.66 16436.53,763.30 16426.03,763.03 16410.11,762.57 16396.70,762.20 16386.58,761.90 16375.99,761.61 16365.88,761.33 16351.51,760.94 16341.07,760.68 16328.82,760.38 16316.45,760.04 16300.82,759.60 16281.91,759.08 16265.05,758.60 16248.55,758.10 16230.04,757.54 16208.53,756.93 16188.88,756.40 16168.56,755.83 16146.39,755.21 16130.90,754.78 16119.42,754.47 16107.99,754.17 16091.42,753.68 16075.17,753.27 16057.51,752.79 16046.60,752.50 16043.30,752.41"/>
        <lane id="174.0_2" index="2" speed="13.89" length="993.25" width="3.66" shape="17036.25,776.73 17029.87,776.56 17021.11,776.30 17011.04,776.02 16996.99,775.63 16982.86,775.23 16968.87,774.82 16955.13,774.42 16943.24,774.05 16932.17,773.70 16922.20,773.40 16908.95,773.00 16894.04,772.54 16883.20,772.24 16867.10,771.78 16849.60,771.29 16837.78,771.03 16824.68,770.67 16809.54,770.29 16794.23,769.87 16772.84,769.27 16752.12,768.67 16741.61,768.34 16729.19,768.01 16714.36,767.57 16700.52,767.17 16686.78,766.74 16677.75,766.49 16667.60,766.19 16656.92,765.88 16646.48,765.58 16635.22,765.26 16623.82,764.93 16609.07,764.50 16597.74,764.17 16582.59,763.73 16572.18,763.45 16561.31,763.13 16548.08,762.77 16537.53,762.48 16526.62,762.17 16514.75,761.85 16505.64,761.59 16491.87,761.19 16479.42,760.83 16464.41,760.43 16448.91,760.00 16436.63,759.64 16426.13,759.37 16410.22,758.91 16396.81,758.54 16386.69,758.24 16376.09,757.95 16365.98,757.67 16351.60,757.28 16341.17,757.02 16328.91,756.72 16316.55,756.38 16300.92,755.94 16282.01,755.42 16265.16,754.94 16248.66,754.44 16230.15,753.88 16208.63,753.27 16188.98,752.74 16168.66,752.17 16146.49,751.55 16131.00,751.12 16119.52,750.81 16108.09,750.51 16091.52,750.02 16075.26,749.61 16057.61,749.13 16046.70,748.84 16043.39,748.75"/>
    </edge>
    <edge id="176.0" from="node_174_end" to="node_176_end" priority="-1" type="town" shape="16039.40,746.81 16032.16,746.62 16015.52,746.15 15999.08,745.69 15987.46,745.37 15977.49,745.07">
        <lane id="176.0_0" index="0" speed="13.89" length="56.12" width="3.66" shape="16035.18,752.19 16032.01,752.11 16015.37,751.64 15998.93,751.18 15987.30,750.86 15979.07,750.61"/>
        <lane id="176.0_1" index="1" speed="13.89" length="56.12" width="3.66" shape="16035.28,748.53 16032.11,748.45 16015.47,747.98 15999.03,747.52 15987.41,747.20 15979.18,746.95"/>
    </edge>
    <edge id="178.0" from="node_176_end" to="junction_75" priority="-1" type="town" shape="15977.49,745.07 15961.55,744.59">
        <lane id="178.0_0" index="0" speed="13.89" length="14.48" width="3.66" shape="15975.75,754.17 15961.27,753.74"/>
        <lane id="178.0_1" index="1" speed="13.89" length="14.48" width="3.66" shape="15975.86,750.51 15961.38,750.08"/>
        <lane id="178.0_2" index="2" speed="13.89" length="14.48" width="3.66" shape="15975.97,746.86 15961.50,746.42"/>
    </edge>
    <edge id="182.0" from="junction_75" to="node_182_end" priority="-1" type="town" shape="15927.63,743.59 15912.91,743.14 15894.27,742.59 15871.06,741.94 15850.60,741.37 15831.23,740.83 15809.09,740.27 15779.69,739.51 15755.40,738.85 15733.57,738.26 15714.30,737.74 15681.64,736.76 15651.68,735.92 15621.01,735.05 15585.34,733.96 15557.44,733.23 15529.93,732.42 15504.22,731.67 15480.39,731.02 15458.77,730.42 15437.59,729.82 15418.25,729.30 15400.75,728.82 15395.77,728.67">
        <lane id="182.0_0" index="0" disallow="all" speed="13.89" length="530.57" width="3.66" shape="15927.35,752.74 15912.64,752.29 15894.01,751.74 15870.80,751.09 15850.35,750.52 15830.99,749.98 15808.86,749.42 15779.45,748.66 15755.15,748.00 15733.32,747.41 15714.04,746.89 15681.37,745.91 15651.42,745.07 15620.74,744.20 15585.08,743.11 15557.19,742.38 15529.66,741.57 15503.96,740.82 15480.14,740.17 15458.51,739.57 15437.34,738.97 15418.00,738.45 15400.49,737.97 15396.99,737.86" type="shoulder"/>
        <lane id="182.0_1" index="1" speed="13.89" length="530.57" width="3.66" shape="15927.46,749.08 15912.75,748.63 15894.11,748.08 15870.91,747.43 15850.45,746.86 15831.08,746.32 15808.95,745.76 15779.55,745.00 15755.25,744.34 15733.42,743.75 15714.14,743.23 15681.48,742.25 15651.53,741.41 15620.85,740.54 15585.18,739.45 15557.29,738.72 15529.77,737.91 15504.07,737.16 15480.24,736.51 15458.62,735.91 15437.44,735.31 15418.10,734.79 15400.60,734.31 15397.10,734.20"/>
        <lane id="182.0_2" index="2" speed="13.89" length="530.57" width="3.66" shape="15927.57,745.42 15912.86,744.97 15894.22,744.42 15871.01,743.77 15850.55,743.20 15831.18,742.66 15809.04,742.10 15779.64,741.34 15755.35,740.68 15733.52,740.09 15714.25,739.57 15681.59,738.59 15651.63,737.75 15620.96,736.88 15585.29,735.79 15557.39,735.06 15529.88,734.25 15504.17,733.50 15480.34,732.85 15458.72,732.25 15437.54,731.65 15418.20,731.13 15400.70,730.65 15397.21,730.54"/>
    </edge>
    <edge id="183.0" from="j_merge_end_13" to="junction_76" priority="-1" type="town" shape="15117.80,720.55 15081.82,719.61 15052.33,718.84 15026.92,718.16 15002.78,717.47 14978.27,716.75 14960.14,716.21 14938.04,715.50 14915.93,714.87 14897.33,714.29 14876.96,713.69 14861.43,713.08 14818.30,711.74 14779.40,710.31 14732.96,708.10 14689.00,705.49 14638.83,701.72 14551.40,694.48 14472.71,687.34 14399.30,680.52 14268.17,668.77 14150.76,658.01 14071.33,650.88 13967.24,641.16 13868.88,632.07 13818.90,627.56 13744.90,620.89 13679.49,614.93 13595.46,607.34 13478.45,596.70 13381.44,587.91 13261.70,577.24 13150.47,567.14 13050.00,557.95 12940.62,548.06 12824.81,537.53 12697.73,525.84 12642.52,520.77 12563.51,513.52 12500.42,507.72">
        <lane id="183.0_0" index="0" disallow="all" speed="13.89" length="2626.79" width="3.66" shape="15117.40,729.69 15081.58,728.76 15052.09,727.99 15026.67,727.31 15002.52,726.62 14978.00,725.90 14959.86,725.36 14937.76,724.65 14915.66,724.02 14897.05,723.44 14876.65,722.83 14861.11,722.22 14817.99,720.88 14779.01,719.45 14732.47,717.24 14688.39,714.62 14638.11,710.84 14550.61,703.60 14471.87,696.45 14398.47,689.63 14267.34,677.88 14149.93,667.12 14070.50,659.99 13966.39,650.27 13868.05,641.18 13818.08,636.67 13744.07,630.00 13678.66,624.04 13594.63,616.45 13477.62,605.81 13380.62,597.02 13260.88,586.35 13149.64,576.25 13049.17,567.06 12939.79,557.17 12823.98,546.64 12696.89,534.95 12641.68,529.88 12562.67,522.63 12499.58,516.83" type="shoulder"/>
        <lane id="183.0_1" index="1" speed="13.89" length="2626.79" width="3.66" shape="15117.49,726.03 15081.68,725.10 15052.19,724.33 15026.77,723.65 15002.62,722.96 14978.11,722.24 14959.97,721.70 14937.87,720.99 14915.77,720.36 14897.16,719.78 14876.77,719.18 14861.24,718.57 14818.11,717.23 14779.17,715.80 14732.67,713.58 14688.63,710.97 14638.40,707.19 14550.93,699.95 14472.21,692.81 14398.80,685.99 14267.67,674.24 14150.26,663.48 14070.83,656.35 13966.73,646.63 13868.38,637.54 13818.41,633.03 13744.40,626.36 13678.99,620.40 13594.96,612.81 13477.95,602.17 13380.95,593.38 13261.21,582.71 13149.97,572.61 13049.50,563.42 12940.12,553.53 12824.31,543.00 12697.23,531.31 12642.02,526.24 12563.01,518.99 12499.92,513.19"/>
        <lane id="183.0_2" index="2" speed="13.89" length="2626.79" width="3.66" shape="15117.59,722.38 15081.77,721.44 15052.28,720.67 15026.87,719.99 15002.73,719.30 14978.22,718.58 14960.08,718.04 14937.98,717.33 14915.88,716.70 14897.27,716.12 14876.90,715.52 14861.37,714.91 14818.24,713.57 14779.32,712.14 14732.86,709.93 14688.88,707.32 14638.69,703.54 14551.24,696.30 14472.54,689.16 14399.13,682.34 14268.01,670.59 14150.59,659.83 14071.16,652.70 13967.07,642.98 13868.71,633.89 13818.74,629.38 13744.74,622.71 13679.32,616.75 13595.29,609.16 13478.28,598.52 13381.28,589.73 13261.54,579.06 13150.30,568.96 13049.83,559.77 12940.45,549.88 12824.64,539.35 12697.56,527.66 12642.35,522.59 12563.34,515.34 12500.25,509.54"/>
    </edge>
    <edge id="186.0" from="node_186_start" to="node_186_end" priority="-1" type="town" shape="15429.02,741.40 15428.58,741.61 15417.14,740.40 15408.36,739.64 15395.79,738.78">
        <lane id="186.0_0" index="0" speed="13.89" length="32.15" width="3.66" shape="15427.85,743.38 15416.96,742.22 15408.22,741.46 15395.82,740.62"/>
    </edge>
    <edge id="188.0" from="node_188_start" to="node_186_start" priority="-1" type="town" shape="15503.45,752.09 15492.08,750.20 15473.69,747.25 15457.33,744.81 15443.10,742.97 15430.59,741.55 15429.02,741.40">
        <lane id="188.0_0" index="0" speed="13.89" length="74.05" width="3.66" shape="15503.15,753.90 15491.79,752.01 15473.41,749.06 15457.08,746.62 15442.88,744.79 15430.39,743.37 15429.87,743.32"/>
    </edge>
    <edge id="189.0" from="node_186_end" to="j_merge_start_13" priority="-1" type="town" shape="15395.79,738.78 15381.60,738.10 15362.20,737.10 15340.54,736.01 15322.50,735.04 15307.15,734.20 15292.03,733.32 15281.86,732.77 15271.07,732.20">
        <lane id="189.0_0" index="0" speed="13.89" length="124.87" width="3.66" shape="15395.54,740.60 15381.51,739.93 15362.11,738.93 15340.45,737.84 15322.40,736.87 15307.05,736.03 15291.93,735.15 15281.76,734.60 15270.85,734.02"/>
    </edge>
    <edge id="191.0" from="node_182_end" to="j_merge_start_13" priority="-1" type="town" shape="15395.77,728.67 15380.12,728.20 15353.85,727.47 15329.57,726.77 15307.35,726.11 15281.30,725.39 15271.05,725.11">
        <lane id="191.0_0" index="0" speed="13.89" length="123.26" width="3.66" shape="15394.11,734.11 15379.96,733.69 15353.69,732.96 15329.41,732.26 15307.19,731.60 15281.15,730.88 15270.90,730.60"/>
        <lane id="191.0_1" index="1" speed="13.89" length="123.26" width="3.66" shape="15394.22,730.45 15380.07,730.03 15353.80,729.30 15329.52,728.60 15307.30,727.94 15281.25,727.22 15271.00,726.94"/>
    </edge>
    <edge id="197.0" from="junction_75" to="node_197_end" priority="-1" type="town" shape="15928.05,753.70 15922.15,754.08 15909.92,754.96 15899.76,755.70 15888.92,756.49">
        <lane id="197.0_0" index="0" speed="13.89" length="39.21" width="3.66" shape="15928.17,755.53 15922.28,755.91 15910.05,756.79 15899.89,757.53 15889.05,758.32"/>
    </edge>
    <edge id="200.0" from="node_200_start" to="junction_15" priority="-1" type="town" shape="11671.04,442.30 11645.69,436.98">
        <lane id="200.0_0" index="0" speed="13.89" length="20.11" width="3.66" shape="11670.53,444.06 11650.85,439.93"/>
    </edge>